data_image0
_chemical_formula_structural       Ag1372
_chemical_formula_sum              "Ag1372"
_cell_length_a       28.63
_cell_length_b       28.63
_cell_length_c       28.63
_cell_angle_alpha    90
_cell_angle_beta     90
_cell_angle_gamma    90

_space_group_name_H-M_alt    "P 1"
_space_group_IT_number       1

loop_
  _space_group_symop_operation_xyz
  'x, y, z'

loop_
  _atom_site_type_symbol
  _atom_site_label
  _atom_site_symmetry_multiplicity
  _atom_site_fract_x
  _atom_site_fract_y
  _atom_site_fract_z
  _atom_site_occupancy
  Ag  Ag1       1.0  0.00000  0.00000  0.00000  1.0000
  Ag  Ag2       1.0  0.00000  0.07143  0.07143  1.0000
  Ag  Ag3       1.0  0.07143  0.00000  0.07143  1.0000
  Ag  Ag4       1.0  0.07143  0.07143  0.00000  1.0000
  Ag  Ag5       1.0  0.00000  0.00000  0.14286  1.0000
  Ag  Ag6       1.0  0.00000  0.07143  0.21429  1.0000
  Ag  Ag7       1.0  0.07143  0.00000  0.21429  1.0000
  Ag  Ag8       1.0  0.07143  0.07143  0.14286  1.0000
  Ag  Ag9       1.0  0.00000  0.00000  0.28571  1.0000
  Ag  Ag10      1.0  0.00000  0.07143  0.35714  1.0000
  Ag  Ag11      1.0  0.07143  0.00000  0.35714  1.0000
  Ag  Ag12      1.0  0.07143  0.07143  0.28571  1.0000
  Ag  Ag13      1.0  0.00000  0.00000  0.42857  1.0000
  Ag  Ag14      1.0  0.00000  0.07143  0.50000  1.0000
  Ag  Ag15      1.0  0.07143  0.00000  0.50000  1.0000
  Ag  Ag16      1.0  0.07143  0.07143  0.42857  1.0000
  Ag  Ag17      1.0  0.00000  0.00000  0.57143  1.0000
  Ag  Ag18      1.0  0.00000  0.07143  0.64286  1.0000
  Ag  Ag19      1.0  0.07143  0.00000  0.64286  1.0000
  Ag  Ag20      1.0  0.07143  0.07143  0.57143  1.0000
  Ag  Ag21      1.0  0.00000  0.00000  0.71429  1.0000
  Ag  Ag22      1.0  0.00000  0.07143  0.78571  1.0000
  Ag  Ag23      1.0  0.07143  0.00000  0.78571  1.0000
  Ag  Ag24      1.0  0.07143  0.07143  0.71429  1.0000
  Ag  Ag25      1.0  0.00000  0.00000  0.85714  1.0000
  Ag  Ag26      1.0  0.00000  0.07143  0.92857  1.0000
  Ag  Ag27      1.0  0.07143  0.00000  0.92857  1.0000
  Ag  Ag28      1.0  0.07143  0.07143  0.85714  1.0000
  Ag  Ag29      1.0  0.00000  0.14286  0.00000  1.0000
  Ag  Ag30      1.0  0.00000  0.21429  0.07143  1.0000
  Ag  Ag31      1.0  0.07143  0.14286  0.07143  1.0000
  Ag  Ag32      1.0  0.07143  0.21429  0.00000  1.0000
  Ag  Ag33      1.0  0.00000  0.14286  0.14286  1.0000
  Ag  Ag34      1.0  0.00000  0.21429  0.21429  1.0000
  Ag  Ag35      1.0  0.07143  0.14286  0.21429  1.0000
  Ag  Ag36      1.0  0.07143  0.21429  0.14286  1.0000
  Ag  Ag37      1.0  0.00000  0.14286  0.28571  1.0000
  Ag  Ag38      1.0  0.00000  0.21429  0.35714  1.0000
  Ag  Ag39      1.0  0.07143  0.14286  0.35714  1.0000
  Ag  Ag40      1.0  0.07143  0.21429  0.28571  1.0000
  Ag  Ag41      1.0  0.00000  0.14286  0.42857  1.0000
  Ag  Ag42      1.0  0.00000  0.21429  0.50000  1.0000
  Ag  Ag43      1.0  0.07143  0.14286  0.50000  1.0000
  Ag  Ag44      1.0  0.07143  0.21429  0.42857  1.0000
  Ag  Ag45      1.0  0.00000  0.14286  0.57143  1.0000
  Ag  Ag46      1.0  0.00000  0.21429  0.64286  1.0000
  Ag  Ag47      1.0  0.07143  0.14286  0.64286  1.0000
  Ag  Ag48      1.0  0.07143  0.21429  0.57143  1.0000
  Ag  Ag49      1.0  0.00000  0.14286  0.71429  1.0000
  Ag  Ag50      1.0  0.00000  0.21429  0.78571  1.0000
  Ag  Ag51      1.0  0.07143  0.14286  0.78571  1.0000
  Ag  Ag52      1.0  0.07143  0.21429  0.71429  1.0000
  Ag  Ag53      1.0  0.00000  0.14286  0.85714  1.0000
  Ag  Ag54      1.0  0.00000  0.21429  0.92857  1.0000
  Ag  Ag55      1.0  0.07143  0.14286  0.92857  1.0000
  Ag  Ag56      1.0  0.07143  0.21429  0.85714  1.0000
  Ag  Ag57      1.0  0.00000  0.28571  0.00000  1.0000
  Ag  Ag58      1.0  0.00000  0.35714  0.07143  1.0000
  Ag  Ag59      1.0  0.07143  0.28571  0.07143  1.0000
  Ag  Ag60      1.0  0.07143  0.35714  0.00000  1.0000
  Ag  Ag61      1.0  0.00000  0.28571  0.14286  1.0000
  Ag  Ag62      1.0  0.00000  0.35714  0.21429  1.0000
  Ag  Ag63      1.0  0.07143  0.28571  0.21429  1.0000
  Ag  Ag64      1.0  0.07143  0.35714  0.14286  1.0000
  Ag  Ag65      1.0  0.00000  0.28571  0.28571  1.0000
  Ag  Ag66      1.0  0.00000  0.35714  0.35714  1.0000
  Ag  Ag67      1.0  0.07143  0.28571  0.35714  1.0000
  Ag  Ag68      1.0  0.07143  0.35714  0.28571  1.0000
  Ag  Ag69      1.0  0.00000  0.28571  0.42857  1.0000
  Ag  Ag70      1.0  0.00000  0.35714  0.50000  1.0000
  Ag  Ag71      1.0  0.07143  0.28571  0.50000  1.0000
  Ag  Ag72      1.0  0.07143  0.35714  0.42857  1.0000
  Ag  Ag73      1.0  0.00000  0.28571  0.57143  1.0000
  Ag  Ag74      1.0  0.00000  0.35714  0.64286  1.0000
  Ag  Ag75      1.0  0.07143  0.28571  0.64286  1.0000
  Ag  Ag76      1.0  0.07143  0.35714  0.57143  1.0000
  Ag  Ag77      1.0  0.00000  0.28571  0.71429  1.0000
  Ag  Ag78      1.0  0.00000  0.35714  0.78571  1.0000
  Ag  Ag79      1.0  0.07143  0.28571  0.78571  1.0000
  Ag  Ag80      1.0  0.07143  0.35714  0.71429  1.0000
  Ag  Ag81      1.0  0.00000  0.28571  0.85714  1.0000
  Ag  Ag82      1.0  0.00000  0.35714  0.92857  1.0000
  Ag  Ag83      1.0  0.07143  0.28571  0.92857  1.0000
  Ag  Ag84      1.0  0.07143  0.35714  0.85714  1.0000
  Ag  Ag85      1.0  0.00000  0.42857  0.00000  1.0000
  Ag  Ag86      1.0  0.00000  0.50000  0.07143  1.0000
  Ag  Ag87      1.0  0.07143  0.42857  0.07143  1.0000
  Ag  Ag88      1.0  0.07143  0.50000  0.00000  1.0000
  Ag  Ag89      1.0  0.00000  0.42857  0.14286  1.0000
  Ag  Ag90      1.0  0.00000  0.50000  0.21429  1.0000
  Ag  Ag91      1.0  0.07143  0.42857  0.21429  1.0000
  Ag  Ag92      1.0  0.07143  0.50000  0.14286  1.0000
  Ag  Ag93      1.0  0.00000  0.42857  0.28571  1.0000
  Ag  Ag94      1.0  0.00000  0.50000  0.35714  1.0000
  Ag  Ag95      1.0  0.07143  0.42857  0.35714  1.0000
  Ag  Ag96      1.0  0.07143  0.50000  0.28571  1.0000
  Ag  Ag97      1.0  0.00000  0.42857  0.42857  1.0000
  Ag  Ag98      1.0  0.00000  0.50000  0.50000  1.0000
  Ag  Ag99      1.0  0.07143  0.42857  0.50000  1.0000
  Ag  Ag100     1.0  0.07143  0.50000  0.42857  1.0000
  Ag  Ag101     1.0  0.00000  0.42857  0.57143  1.0000
  Ag  Ag102     1.0  0.00000  0.50000  0.64286  1.0000
  Ag  Ag103     1.0  0.07143  0.42857  0.64286  1.0000
  Ag  Ag104     1.0  0.07143  0.50000  0.57143  1.0000
  Ag  Ag105     1.0  0.00000  0.42857  0.71429  1.0000
  Ag  Ag106     1.0  0.00000  0.50000  0.78571  1.0000
  Ag  Ag107     1.0  0.07143  0.42857  0.78571  1.0000
  Ag  Ag108     1.0  0.07143  0.50000  0.71429  1.0000
  Ag  Ag109     1.0  0.00000  0.42857  0.85714  1.0000
  Ag  Ag110     1.0  0.00000  0.50000  0.92857  1.0000
  Ag  Ag111     1.0  0.07143  0.42857  0.92857  1.0000
  Ag  Ag112     1.0  0.07143  0.50000  0.85714  1.0000
  Ag  Ag113     1.0  0.00000  0.57143  0.00000  1.0000
  Ag  Ag114     1.0  0.00000  0.64286  0.07143  1.0000
  Ag  Ag115     1.0  0.07143  0.57143  0.07143  1.0000
  Ag  Ag116     1.0  0.07143  0.64286  0.00000  1.0000
  Ag  Ag117     1.0  0.00000  0.57143  0.14286  1.0000
  Ag  Ag118     1.0  0.00000  0.64286  0.21429  1.0000
  Ag  Ag119     1.0  0.07143  0.57143  0.21429  1.0000
  Ag  Ag120     1.0  0.07143  0.64286  0.14286  1.0000
  Ag  Ag121     1.0  0.00000  0.57143  0.28571  1.0000
  Ag  Ag122     1.0  0.00000  0.64286  0.35714  1.0000
  Ag  Ag123     1.0  0.07143  0.57143  0.35714  1.0000
  Ag  Ag124     1.0  0.07143  0.64286  0.28571  1.0000
  Ag  Ag125     1.0  0.00000  0.57143  0.42857  1.0000
  Ag  Ag126     1.0  0.00000  0.64286  0.50000  1.0000
  Ag  Ag127     1.0  0.07143  0.57143  0.50000  1.0000
  Ag  Ag128     1.0  0.07143  0.64286  0.42857  1.0000
  Ag  Ag129     1.0  0.00000  0.57143  0.57143  1.0000
  Ag  Ag130     1.0  0.00000  0.64286  0.64286  1.0000
  Ag  Ag131     1.0  0.07143  0.57143  0.64286  1.0000
  Ag  Ag132     1.0  0.07143  0.64286  0.57143  1.0000
  Ag  Ag133     1.0  0.00000  0.57143  0.71429  1.0000
  Ag  Ag134     1.0  0.00000  0.64286  0.78571  1.0000
  Ag  Ag135     1.0  0.07143  0.57143  0.78571  1.0000
  Ag  Ag136     1.0  0.07143  0.64286  0.71429  1.0000
  Ag  Ag137     1.0  0.00000  0.57143  0.85714  1.0000
  Ag  Ag138     1.0  0.00000  0.64286  0.92857  1.0000
  Ag  Ag139     1.0  0.07143  0.57143  0.92857  1.0000
  Ag  Ag140     1.0  0.07143  0.64286  0.85714  1.0000
  Ag  Ag141     1.0  0.00000  0.71429  0.00000  1.0000
  Ag  Ag142     1.0  0.00000  0.78571  0.07143  1.0000
  Ag  Ag143     1.0  0.07143  0.71429  0.07143  1.0000
  Ag  Ag144     1.0  0.07143  0.78571  0.00000  1.0000
  Ag  Ag145     1.0  0.00000  0.71429  0.14286  1.0000
  Ag  Ag146     1.0  0.00000  0.78571  0.21429  1.0000
  Ag  Ag147     1.0  0.07143  0.71429  0.21429  1.0000
  Ag  Ag148     1.0  0.07143  0.78571  0.14286  1.0000
  Ag  Ag149     1.0  0.00000  0.71429  0.28571  1.0000
  Ag  Ag150     1.0  0.00000  0.78571  0.35714  1.0000
  Ag  Ag151     1.0  0.07143  0.71429  0.35714  1.0000
  Ag  Ag152     1.0  0.07143  0.78571  0.28571  1.0000
  Ag  Ag153     1.0  0.00000  0.71429  0.42857  1.0000
  Ag  Ag154     1.0  0.00000  0.78571  0.50000  1.0000
  Ag  Ag155     1.0  0.07143  0.71429  0.50000  1.0000
  Ag  Ag156     1.0  0.07143  0.78571  0.42857  1.0000
  Ag  Ag157     1.0  0.00000  0.71429  0.57143  1.0000
  Ag  Ag158     1.0  0.00000  0.78571  0.64286  1.0000
  Ag  Ag159     1.0  0.07143  0.71429  0.64286  1.0000
  Ag  Ag160     1.0  0.07143  0.78571  0.57143  1.0000
  Ag  Ag161     1.0  0.00000  0.71429  0.71429  1.0000
  Ag  Ag162     1.0  0.00000  0.78571  0.78571  1.0000
  Ag  Ag163     1.0  0.07143  0.71429  0.78571  1.0000
  Ag  Ag164     1.0  0.07143  0.78571  0.71429  1.0000
  Ag  Ag165     1.0  0.00000  0.71429  0.85714  1.0000
  Ag  Ag166     1.0  0.00000  0.78571  0.92857  1.0000
  Ag  Ag167     1.0  0.07143  0.71429  0.92857  1.0000
  Ag  Ag168     1.0  0.07143  0.78571  0.85714  1.0000
  Ag  Ag169     1.0  0.00000  0.85714  0.00000  1.0000
  Ag  Ag170     1.0  0.00000  0.92857  0.07143  1.0000
  Ag  Ag171     1.0  0.07143  0.85714  0.07143  1.0000
  Ag  Ag172     1.0  0.07143  0.92857  0.00000  1.0000
  Ag  Ag173     1.0  0.00000  0.85714  0.14286  1.0000
  Ag  Ag174     1.0  0.00000  0.92857  0.21429  1.0000
  Ag  Ag175     1.0  0.07143  0.85714  0.21429  1.0000
  Ag  Ag176     1.0  0.07143  0.92857  0.14286  1.0000
  Ag  Ag177     1.0  0.00000  0.85714  0.28571  1.0000
  Ag  Ag178     1.0  0.00000  0.92857  0.35714  1.0000
  Ag  Ag179     1.0  0.07143  0.85714  0.35714  1.0000
  Ag  Ag180     1.0  0.07143  0.92857  0.28571  1.0000
  Ag  Ag181     1.0  0.00000  0.85714  0.42857  1.0000
  Ag  Ag182     1.0  0.00000  0.92857  0.50000  1.0000
  Ag  Ag183     1.0  0.07143  0.85714  0.50000  1.0000
  Ag  Ag184     1.0  0.07143  0.92857  0.42857  1.0000
  Ag  Ag185     1.0  0.00000  0.85714  0.57143  1.0000
  Ag  Ag186     1.0  0.00000  0.92857  0.64286  1.0000
  Ag  Ag187     1.0  0.07143  0.85714  0.64286  1.0000
  Ag  Ag188     1.0  0.07143  0.92857  0.57143  1.0000
  Ag  Ag189     1.0  0.00000  0.85714  0.71429  1.0000
  Ag  Ag190     1.0  0.00000  0.92857  0.78571  1.0000
  Ag  Ag191     1.0  0.07143  0.85714  0.78571  1.0000
  Ag  Ag192     1.0  0.07143  0.92857  0.71429  1.0000
  Ag  Ag193     1.0  0.00000  0.85714  0.85714  1.0000
  Ag  Ag194     1.0  0.00000  0.92857  0.92857  1.0000
  Ag  Ag195     1.0  0.07143  0.85714  0.92857  1.0000
  Ag  Ag196     1.0  0.07143  0.92857  0.85714  1.0000
  Ag  Ag197     1.0  0.14286  0.00000  0.00000  1.0000
  Ag  Ag198     1.0  0.14286  0.07143  0.07143  1.0000
  Ag  Ag199     1.0  0.21429  0.00000  0.07143  1.0000
  Ag  Ag200     1.0  0.21429  0.07143  0.00000  1.0000
  Ag  Ag201     1.0  0.14286  0.00000  0.14286  1.0000
  Ag  Ag202     1.0  0.14286  0.07143  0.21429  1.0000
  Ag  Ag203     1.0  0.21429  0.00000  0.21429  1.0000
  Ag  Ag204     1.0  0.21429  0.07143  0.14286  1.0000
  Ag  Ag205     1.0  0.14286  0.00000  0.28571  1.0000
  Ag  Ag206     1.0  0.14286  0.07143  0.35714  1.0000
  Ag  Ag207     1.0  0.21429  0.00000  0.35714  1.0000
  Ag  Ag208     1.0  0.21429  0.07143  0.28571  1.0000
  Ag  Ag209     1.0  0.14286  0.00000  0.42857  1.0000
  Ag  Ag210     1.0  0.14286  0.07143  0.50000  1.0000
  Ag  Ag211     1.0  0.21429  0.00000  0.50000  1.0000
  Ag  Ag212     1.0  0.21429  0.07143  0.42857  1.0000
  Ag  Ag213     1.0  0.14286  0.00000  0.57143  1.0000
  Ag  Ag214     1.0  0.14286  0.07143  0.64286  1.0000
  Ag  Ag215     1.0  0.21429  0.00000  0.64286  1.0000
  Ag  Ag216     1.0  0.21429  0.07143  0.57143  1.0000
  Ag  Ag217     1.0  0.14286  0.00000  0.71429  1.0000
  Ag  Ag218     1.0  0.14286  0.07143  0.78571  1.0000
  Ag  Ag219     1.0  0.21429  0.00000  0.78571  1.0000
  Ag  Ag220     1.0  0.21429  0.07143  0.71429  1.0000
  Ag  Ag221     1.0  0.14286  0.00000  0.85714  1.0000
  Ag  Ag222     1.0  0.14286  0.07143  0.92857  1.0000
  Ag  Ag223     1.0  0.21429  0.00000  0.92857  1.0000
  Ag  Ag224     1.0  0.21429  0.07143  0.85714  1.0000
  Ag  Ag225     1.0  0.14286  0.14286  0.00000  1.0000
  Ag  Ag226     1.0  0.14286  0.21429  0.07143  1.0000
  Ag  Ag227     1.0  0.21429  0.14286  0.07143  1.0000
  Ag  Ag228     1.0  0.21429  0.21429  0.00000  1.0000
  Ag  Ag229     1.0  0.14286  0.14286  0.14286  1.0000
  Ag  Ag230     1.0  0.14286  0.21429  0.21429  1.0000
  Ag  Ag231     1.0  0.21429  0.14286  0.21429  1.0000
  Ag  Ag232     1.0  0.21429  0.21429  0.14286  1.0000
  Ag  Ag233     1.0  0.14286  0.14286  0.28571  1.0000
  Ag  Ag234     1.0  0.14286  0.21429  0.35714  1.0000
  Ag  Ag235     1.0  0.21429  0.14286  0.35714  1.0000
  Ag  Ag236     1.0  0.21429  0.21429  0.28571  1.0000
  Ag  Ag237     1.0  0.14286  0.14286  0.42857  1.0000
  Ag  Ag238     1.0  0.14286  0.21429  0.50000  1.0000
  Ag  Ag239     1.0  0.21429  0.14286  0.50000  1.0000
  Ag  Ag240     1.0  0.21429  0.21429  0.42857  1.0000
  Ag  Ag241     1.0  0.14286  0.14286  0.57143  1.0000
  Ag  Ag242     1.0  0.14286  0.21429  0.64286  1.0000
  Ag  Ag243     1.0  0.21429  0.14286  0.64286  1.0000
  Ag  Ag244     1.0  0.21429  0.21429  0.57143  1.0000
  Ag  Ag245     1.0  0.14286  0.14286  0.71429  1.0000
  Ag  Ag246     1.0  0.14286  0.21429  0.78571  1.0000
  Ag  Ag247     1.0  0.21429  0.14286  0.78571  1.0000
  Ag  Ag248     1.0  0.21429  0.21429  0.71429  1.0000
  Ag  Ag249     1.0  0.14286  0.14286  0.85714  1.0000
  Ag  Ag250     1.0  0.14286  0.21429  0.92857  1.0000
  Ag  Ag251     1.0  0.21429  0.14286  0.92857  1.0000
  Ag  Ag252     1.0  0.21429  0.21429  0.85714  1.0000
  Ag  Ag253     1.0  0.14286  0.28571  0.00000  1.0000
  Ag  Ag254     1.0  0.14286  0.35714  0.07143  1.0000
  Ag  Ag255     1.0  0.21429  0.28571  0.07143  1.0000
  Ag  Ag256     1.0  0.21429  0.35714  0.00000  1.0000
  Ag  Ag257     1.0  0.14286  0.28571  0.14286  1.0000
  Ag  Ag258     1.0  0.14286  0.35714  0.21429  1.0000
  Ag  Ag259     1.0  0.21429  0.28571  0.21429  1.0000
  Ag  Ag260     1.0  0.21429  0.35714  0.14286  1.0000
  Ag  Ag261     1.0  0.14286  0.28571  0.28571  1.0000
  Ag  Ag262     1.0  0.14286  0.35714  0.35714  1.0000
  Ag  Ag263     1.0  0.21429  0.28571  0.35714  1.0000
  Ag  Ag264     1.0  0.21429  0.35714  0.28571  1.0000
  Ag  Ag265     1.0  0.14286  0.28571  0.42857  1.0000
  Ag  Ag266     1.0  0.14286  0.35714  0.50000  1.0000
  Ag  Ag267     1.0  0.21429  0.28571  0.50000  1.0000
  Ag  Ag268     1.0  0.21429  0.35714  0.42857  1.0000
  Ag  Ag269     1.0  0.14286  0.28571  0.57143  1.0000
  Ag  Ag270     1.0  0.14286  0.35714  0.64286  1.0000
  Ag  Ag271     1.0  0.21429  0.28571  0.64286  1.0000
  Ag  Ag272     1.0  0.21429  0.35714  0.57143  1.0000
  Ag  Ag273     1.0  0.14286  0.28571  0.71429  1.0000
  Ag  Ag274     1.0  0.14286  0.35714  0.78571  1.0000
  Ag  Ag275     1.0  0.21429  0.28571  0.78571  1.0000
  Ag  Ag276     1.0  0.21429  0.35714  0.71429  1.0000
  Ag  Ag277     1.0  0.14286  0.28571  0.85714  1.0000
  Ag  Ag278     1.0  0.14286  0.35714  0.92857  1.0000
  Ag  Ag279     1.0  0.21429  0.28571  0.92857  1.0000
  Ag  Ag280     1.0  0.21429  0.35714  0.85714  1.0000
  Ag  Ag281     1.0  0.14286  0.42857  0.00000  1.0000
  Ag  Ag282     1.0  0.14286  0.50000  0.07143  1.0000
  Ag  Ag283     1.0  0.21429  0.42857  0.07143  1.0000
  Ag  Ag284     1.0  0.21429  0.50000  0.00000  1.0000
  Ag  Ag285     1.0  0.14286  0.42857  0.14286  1.0000
  Ag  Ag286     1.0  0.14286  0.50000  0.21429  1.0000
  Ag  Ag287     1.0  0.21429  0.42857  0.21429  1.0000
  Ag  Ag288     1.0  0.21429  0.50000  0.14286  1.0000
  Ag  Ag289     1.0  0.14286  0.42857  0.28571  1.0000
  Ag  Ag290     1.0  0.14286  0.50000  0.35714  1.0000
  Ag  Ag291     1.0  0.21429  0.42857  0.35714  1.0000
  Ag  Ag292     1.0  0.21429  0.50000  0.28571  1.0000
  Ag  Ag293     1.0  0.14286  0.42857  0.42857  1.0000
  Ag  Ag294     1.0  0.14286  0.50000  0.50000  1.0000
  Ag  Ag295     1.0  0.21429  0.42857  0.50000  1.0000
  Ag  Ag296     1.0  0.21429  0.50000  0.42857  1.0000
  Ag  Ag297     1.0  0.14286  0.42857  0.57143  1.0000
  Ag  Ag298     1.0  0.14286  0.50000  0.64286  1.0000
  Ag  Ag299     1.0  0.21429  0.42857  0.64286  1.0000
  Ag  Ag300     1.0  0.21429  0.50000  0.57143  1.0000
  Ag  Ag301     1.0  0.14286  0.42857  0.71429  1.0000
  Ag  Ag302     1.0  0.14286  0.50000  0.78571  1.0000
  Ag  Ag303     1.0  0.21429  0.42857  0.78571  1.0000
  Ag  Ag304     1.0  0.21429  0.50000  0.71429  1.0000
  Ag  Ag305     1.0  0.14286  0.42857  0.85714  1.0000
  Ag  Ag306     1.0  0.14286  0.50000  0.92857  1.0000
  Ag  Ag307     1.0  0.21429  0.42857  0.92857  1.0000
  Ag  Ag308     1.0  0.21429  0.50000  0.85714  1.0000
  Ag  Ag309     1.0  0.14286  0.57143  0.00000  1.0000
  Ag  Ag310     1.0  0.14286  0.64286  0.07143  1.0000
  Ag  Ag311     1.0  0.21429  0.57143  0.07143  1.0000
  Ag  Ag312     1.0  0.21429  0.64286  0.00000  1.0000
  Ag  Ag313     1.0  0.14286  0.57143  0.14286  1.0000
  Ag  Ag314     1.0  0.14286  0.64286  0.21429  1.0000
  Ag  Ag315     1.0  0.21429  0.57143  0.21429  1.0000
  Ag  Ag316     1.0  0.21429  0.64286  0.14286  1.0000
  Ag  Ag317     1.0  0.14286  0.57143  0.28571  1.0000
  Ag  Ag318     1.0  0.14286  0.64286  0.35714  1.0000
  Ag  Ag319     1.0  0.21429  0.57143  0.35714  1.0000
  Ag  Ag320     1.0  0.21429  0.64286  0.28571  1.0000
  Ag  Ag321     1.0  0.14286  0.57143  0.42857  1.0000
  Ag  Ag322     1.0  0.14286  0.64286  0.50000  1.0000
  Ag  Ag323     1.0  0.21429  0.57143  0.50000  1.0000
  Ag  Ag324     1.0  0.21429  0.64286  0.42857  1.0000
  Ag  Ag325     1.0  0.14286  0.57143  0.57143  1.0000
  Ag  Ag326     1.0  0.14286  0.64286  0.64286  1.0000
  Ag  Ag327     1.0  0.21429  0.57143  0.64286  1.0000
  Ag  Ag328     1.0  0.21429  0.64286  0.57143  1.0000
  Ag  Ag329     1.0  0.14286  0.57143  0.71429  1.0000
  Ag  Ag330     1.0  0.14286  0.64286  0.78571  1.0000
  Ag  Ag331     1.0  0.21429  0.57143  0.78571  1.0000
  Ag  Ag332     1.0  0.21429  0.64286  0.71429  1.0000
  Ag  Ag333     1.0  0.14286  0.57143  0.85714  1.0000
  Ag  Ag334     1.0  0.14286  0.64286  0.92857  1.0000
  Ag  Ag335     1.0  0.21429  0.57143  0.92857  1.0000
  Ag  Ag336     1.0  0.21429  0.64286  0.85714  1.0000
  Ag  Ag337     1.0  0.14286  0.71429  0.00000  1.0000
  Ag  Ag338     1.0  0.14286  0.78571  0.07143  1.0000
  Ag  Ag339     1.0  0.21429  0.71429  0.07143  1.0000
  Ag  Ag340     1.0  0.21429  0.78571  0.00000  1.0000
  Ag  Ag341     1.0  0.14286  0.71429  0.14286  1.0000
  Ag  Ag342     1.0  0.14286  0.78571  0.21429  1.0000
  Ag  Ag343     1.0  0.21429  0.71429  0.21429  1.0000
  Ag  Ag344     1.0  0.21429  0.78571  0.14286  1.0000
  Ag  Ag345     1.0  0.14286  0.71429  0.28571  1.0000
  Ag  Ag346     1.0  0.14286  0.78571  0.35714  1.0000
  Ag  Ag347     1.0  0.21429  0.71429  0.35714  1.0000
  Ag  Ag348     1.0  0.21429  0.78571  0.28571  1.0000
  Ag  Ag349     1.0  0.14286  0.71429  0.42857  1.0000
  Ag  Ag350     1.0  0.14286  0.78571  0.50000  1.0000
  Ag  Ag351     1.0  0.21429  0.71429  0.50000  1.0000
  Ag  Ag352     1.0  0.21429  0.78571  0.42857  1.0000
  Ag  Ag353     1.0  0.14286  0.71429  0.57143  1.0000
  Ag  Ag354     1.0  0.14286  0.78571  0.64286  1.0000
  Ag  Ag355     1.0  0.21429  0.71429  0.64286  1.0000
  Ag  Ag356     1.0  0.21429  0.78571  0.57143  1.0000
  Ag  Ag357     1.0  0.14286  0.71429  0.71429  1.0000
  Ag  Ag358     1.0  0.14286  0.78571  0.78571  1.0000
  Ag  Ag359     1.0  0.21429  0.71429  0.78571  1.0000
  Ag  Ag360     1.0  0.21429  0.78571  0.71429  1.0000
  Ag  Ag361     1.0  0.14286  0.71429  0.85714  1.0000
  Ag  Ag362     1.0  0.14286  0.78571  0.92857  1.0000
  Ag  Ag363     1.0  0.21429  0.71429  0.92857  1.0000
  Ag  Ag364     1.0  0.21429  0.78571  0.85714  1.0000
  Ag  Ag365     1.0  0.14286  0.85714  0.00000  1.0000
  Ag  Ag366     1.0  0.14286  0.92857  0.07143  1.0000
  Ag  Ag367     1.0  0.21429  0.85714  0.07143  1.0000
  Ag  Ag368     1.0  0.21429  0.92857  0.00000  1.0000
  Ag  Ag369     1.0  0.14286  0.85714  0.14286  1.0000
  Ag  Ag370     1.0  0.14286  0.92857  0.21429  1.0000
  Ag  Ag371     1.0  0.21429  0.85714  0.21429  1.0000
  Ag  Ag372     1.0  0.21429  0.92857  0.14286  1.0000
  Ag  Ag373     1.0  0.14286  0.85714  0.28571  1.0000
  Ag  Ag374     1.0  0.14286  0.92857  0.35714  1.0000
  Ag  Ag375     1.0  0.21429  0.85714  0.35714  1.0000
  Ag  Ag376     1.0  0.21429  0.92857  0.28571  1.0000
  Ag  Ag377     1.0  0.14286  0.85714  0.42857  1.0000
  Ag  Ag378     1.0  0.14286  0.92857  0.50000  1.0000
  Ag  Ag379     1.0  0.21429  0.85714  0.50000  1.0000
  Ag  Ag380     1.0  0.21429  0.92857  0.42857  1.0000
  Ag  Ag381     1.0  0.14286  0.85714  0.57143  1.0000
  Ag  Ag382     1.0  0.14286  0.92857  0.64286  1.0000
  Ag  Ag383     1.0  0.21429  0.85714  0.64286  1.0000
  Ag  Ag384     1.0  0.21429  0.92857  0.57143  1.0000
  Ag  Ag385     1.0  0.14286  0.85714  0.71429  1.0000
  Ag  Ag386     1.0  0.14286  0.92857  0.78571  1.0000
  Ag  Ag387     1.0  0.21429  0.85714  0.78571  1.0000
  Ag  Ag388     1.0  0.21429  0.92857  0.71429  1.0000
  Ag  Ag389     1.0  0.14286  0.85714  0.85714  1.0000
  Ag  Ag390     1.0  0.14286  0.92857  0.92857  1.0000
  Ag  Ag391     1.0  0.21429  0.85714  0.92857  1.0000
  Ag  Ag392     1.0  0.21429  0.92857  0.85714  1.0000
  Ag  Ag393     1.0  0.28571  0.00000  0.00000  1.0000
  Ag  Ag394     1.0  0.28571  0.07143  0.07143  1.0000
  Ag  Ag395     1.0  0.35714  0.00000  0.07143  1.0000
  Ag  Ag396     1.0  0.35714  0.07143  0.00000  1.0000
  Ag  Ag397     1.0  0.28571  0.00000  0.14286  1.0000
  Ag  Ag398     1.0  0.28571  0.07143  0.21429  1.0000
  Ag  Ag399     1.0  0.35714  0.00000  0.21429  1.0000
  Ag  Ag400     1.0  0.35714  0.07143  0.14286  1.0000
  Ag  Ag401     1.0  0.28571  0.00000  0.28571  1.0000
  Ag  Ag402     1.0  0.28571  0.07143  0.35714  1.0000
  Ag  Ag403     1.0  0.35714  0.00000  0.35714  1.0000
  Ag  Ag404     1.0  0.35714  0.07143  0.28571  1.0000
  Ag  Ag405     1.0  0.28571  0.00000  0.42857  1.0000
  Ag  Ag406     1.0  0.28571  0.07143  0.50000  1.0000
  Ag  Ag407     1.0  0.35714  0.00000  0.50000  1.0000
  Ag  Ag408     1.0  0.35714  0.07143  0.42857  1.0000
  Ag  Ag409     1.0  0.28571  0.00000  0.57143  1.0000
  Ag  Ag410     1.0  0.28571  0.07143  0.64286  1.0000
  Ag  Ag411     1.0  0.35714  0.00000  0.64286  1.0000
  Ag  Ag412     1.0  0.35714  0.07143  0.57143  1.0000
  Ag  Ag413     1.0  0.28571  0.00000  0.71429  1.0000
  Ag  Ag414     1.0  0.28571  0.07143  0.78571  1.0000
  Ag  Ag415     1.0  0.35714  0.00000  0.78571  1.0000
  Ag  Ag416     1.0  0.35714  0.07143  0.71429  1.0000
  Ag  Ag417     1.0  0.28571  0.00000  0.85714  1.0000
  Ag  Ag418     1.0  0.28571  0.07143  0.92857  1.0000
  Ag  Ag419     1.0  0.35714  0.00000  0.92857  1.0000
  Ag  Ag420     1.0  0.35714  0.07143  0.85714  1.0000
  Ag  Ag421     1.0  0.28571  0.14286  0.00000  1.0000
  Ag  Ag422     1.0  0.28571  0.21429  0.07143  1.0000
  Ag  Ag423     1.0  0.35714  0.14286  0.07143  1.0000
  Ag  Ag424     1.0  0.35714  0.21429  0.00000  1.0000
  Ag  Ag425     1.0  0.28571  0.14286  0.14286  1.0000
  Ag  Ag426     1.0  0.28571  0.21429  0.21429  1.0000
  Ag  Ag427     1.0  0.35714  0.14286  0.21429  1.0000
  Ag  Ag428     1.0  0.35714  0.21429  0.14286  1.0000
  Ag  Ag429     1.0  0.28571  0.14286  0.28571  1.0000
  Ag  Ag430     1.0  0.28571  0.21429  0.35714  1.0000
  Ag  Ag431     1.0  0.35714  0.14286  0.35714  1.0000
  Ag  Ag432     1.0  0.35714  0.21429  0.28571  1.0000
  Ag  Ag433     1.0  0.28571  0.14286  0.42857  1.0000
  Ag  Ag434     1.0  0.28571  0.21429  0.50000  1.0000
  Ag  Ag435     1.0  0.35714  0.14286  0.50000  1.0000
  Ag  Ag436     1.0  0.35714  0.21429  0.42857  1.0000
  Ag  Ag437     1.0  0.28571  0.14286  0.57143  1.0000
  Ag  Ag438     1.0  0.28571  0.21429  0.64286  1.0000
  Ag  Ag439     1.0  0.35714  0.14286  0.64286  1.0000
  Ag  Ag440     1.0  0.35714  0.21429  0.57143  1.0000
  Ag  Ag441     1.0  0.28571  0.14286  0.71429  1.0000
  Ag  Ag442     1.0  0.28571  0.21429  0.78571  1.0000
  Ag  Ag443     1.0  0.35714  0.14286  0.78571  1.0000
  Ag  Ag444     1.0  0.35714  0.21429  0.71429  1.0000
  Ag  Ag445     1.0  0.28571  0.14286  0.85714  1.0000
  Ag  Ag446     1.0  0.28571  0.21429  0.92857  1.0000
  Ag  Ag447     1.0  0.35714  0.14286  0.92857  1.0000
  Ag  Ag448     1.0  0.35714  0.21429  0.85714  1.0000
  Ag  Ag449     1.0  0.28571  0.28571  0.00000  1.0000
  Ag  Ag450     1.0  0.28571  0.35714  0.07143  1.0000
  Ag  Ag451     1.0  0.35714  0.28571  0.07143  1.0000
  Ag  Ag452     1.0  0.35714  0.35714  0.00000  1.0000
  Ag  Ag453     1.0  0.28571  0.28571  0.14286  1.0000
  Ag  Ag454     1.0  0.28571  0.35714  0.21429  1.0000
  Ag  Ag455     1.0  0.35714  0.28571  0.21429  1.0000
  Ag  Ag456     1.0  0.35714  0.35714  0.14286  1.0000
  Ag  Ag457     1.0  0.28571  0.28571  0.28571  1.0000
  Ag  Ag458     1.0  0.28571  0.35714  0.35714  1.0000
  Ag  Ag459     1.0  0.35714  0.28571  0.35714  1.0000
  Ag  Ag460     1.0  0.35714  0.35714  0.28571  1.0000
  Ag  Ag461     1.0  0.28571  0.28571  0.42857  1.0000
  Ag  Ag462     1.0  0.28571  0.35714  0.50000  1.0000
  Ag  Ag463     1.0  0.35714  0.28571  0.50000  1.0000
  Ag  Ag464     1.0  0.35714  0.35714  0.42857  1.0000
  Ag  Ag465     1.0  0.28571  0.28571  0.57143  1.0000
  Ag  Ag466     1.0  0.28571  0.35714  0.64286  1.0000
  Ag  Ag467     1.0  0.35714  0.28571  0.64286  1.0000
  Ag  Ag468     1.0  0.35714  0.35714  0.57143  1.0000
  Ag  Ag469     1.0  0.28571  0.28571  0.71429  1.0000
  Ag  Ag470     1.0  0.28571  0.35714  0.78571  1.0000
  Ag  Ag471     1.0  0.35714  0.28571  0.78571  1.0000
  Ag  Ag472     1.0  0.35714  0.35714  0.71429  1.0000
  Ag  Ag473     1.0  0.28571  0.28571  0.85714  1.0000
  Ag  Ag474     1.0  0.28571  0.35714  0.92857  1.0000
  Ag  Ag475     1.0  0.35714  0.28571  0.92857  1.0000
  Ag  Ag476     1.0  0.35714  0.35714  0.85714  1.0000
  Ag  Ag477     1.0  0.28571  0.42857  0.00000  1.0000
  Ag  Ag478     1.0  0.28571  0.50000  0.07143  1.0000
  Ag  Ag479     1.0  0.35714  0.42857  0.07143  1.0000
  Ag  Ag480     1.0  0.35714  0.50000  0.00000  1.0000
  Ag  Ag481     1.0  0.28571  0.42857  0.14286  1.0000
  Ag  Ag482     1.0  0.28571  0.50000  0.21429  1.0000
  Ag  Ag483     1.0  0.35714  0.42857  0.21429  1.0000
  Ag  Ag484     1.0  0.35714  0.50000  0.14286  1.0000
  Ag  Ag485     1.0  0.28571  0.42857  0.28571  1.0000
  Ag  Ag486     1.0  0.28571  0.50000  0.35714  1.0000
  Ag  Ag487     1.0  0.35714  0.42857  0.35714  1.0000
  Ag  Ag488     1.0  0.35714  0.50000  0.28571  1.0000
  Ag  Ag489     1.0  0.28571  0.42857  0.42857  1.0000
  Ag  Ag490     1.0  0.28571  0.50000  0.50000  1.0000
  Ag  Ag491     1.0  0.35714  0.42857  0.50000  1.0000
  Ag  Ag492     1.0  0.35714  0.50000  0.42857  1.0000
  Ag  Ag493     1.0  0.28571  0.42857  0.57143  1.0000
  Ag  Ag494     1.0  0.28571  0.50000  0.64286  1.0000
  Ag  Ag495     1.0  0.35714  0.42857  0.64286  1.0000
  Ag  Ag496     1.0  0.35714  0.50000  0.57143  1.0000
  Ag  Ag497     1.0  0.28571  0.42857  0.71429  1.0000
  Ag  Ag498     1.0  0.28571  0.50000  0.78571  1.0000
  Ag  Ag499     1.0  0.35714  0.42857  0.78571  1.0000
  Ag  Ag500     1.0  0.35714  0.50000  0.71429  1.0000
  Ag  Ag501     1.0  0.28571  0.42857  0.85714  1.0000
  Ag  Ag502     1.0  0.28571  0.50000  0.92857  1.0000
  Ag  Ag503     1.0  0.35714  0.42857  0.92857  1.0000
  Ag  Ag504     1.0  0.35714  0.50000  0.85714  1.0000
  Ag  Ag505     1.0  0.28571  0.57143  0.00000  1.0000
  Ag  Ag506     1.0  0.28571  0.64286  0.07143  1.0000
  Ag  Ag507     1.0  0.35714  0.57143  0.07143  1.0000
  Ag  Ag508     1.0  0.35714  0.64286  0.00000  1.0000
  Ag  Ag509     1.0  0.28571  0.57143  0.14286  1.0000
  Ag  Ag510     1.0  0.28571  0.64286  0.21429  1.0000
  Ag  Ag511     1.0  0.35714  0.57143  0.21429  1.0000
  Ag  Ag512     1.0  0.35714  0.64286  0.14286  1.0000
  Ag  Ag513     1.0  0.28571  0.57143  0.28571  1.0000
  Ag  Ag514     1.0  0.28571  0.64286  0.35714  1.0000
  Ag  Ag515     1.0  0.35714  0.57143  0.35714  1.0000
  Ag  Ag516     1.0  0.35714  0.64286  0.28571  1.0000
  Ag  Ag517     1.0  0.28571  0.57143  0.42857  1.0000
  Ag  Ag518     1.0  0.28571  0.64286  0.50000  1.0000
  Ag  Ag519     1.0  0.35714  0.57143  0.50000  1.0000
  Ag  Ag520     1.0  0.35714  0.64286  0.42857  1.0000
  Ag  Ag521     1.0  0.28571  0.57143  0.57143  1.0000
  Ag  Ag522     1.0  0.28571  0.64286  0.64286  1.0000
  Ag  Ag523     1.0  0.35714  0.57143  0.64286  1.0000
  Ag  Ag524     1.0  0.35714  0.64286  0.57143  1.0000
  Ag  Ag525     1.0  0.28571  0.57143  0.71429  1.0000
  Ag  Ag526     1.0  0.28571  0.64286  0.78571  1.0000
  Ag  Ag527     1.0  0.35714  0.57143  0.78571  1.0000
  Ag  Ag528     1.0  0.35714  0.64286  0.71429  1.0000
  Ag  Ag529     1.0  0.28571  0.57143  0.85714  1.0000
  Ag  Ag530     1.0  0.28571  0.64286  0.92857  1.0000
  Ag  Ag531     1.0  0.35714  0.57143  0.92857  1.0000
  Ag  Ag532     1.0  0.35714  0.64286  0.85714  1.0000
  Ag  Ag533     1.0  0.28571  0.71429  0.00000  1.0000
  Ag  Ag534     1.0  0.28571  0.78571  0.07143  1.0000
  Ag  Ag535     1.0  0.35714  0.71429  0.07143  1.0000
  Ag  Ag536     1.0  0.35714  0.78571  0.00000  1.0000
  Ag  Ag537     1.0  0.28571  0.71429  0.14286  1.0000
  Ag  Ag538     1.0  0.28571  0.78571  0.21429  1.0000
  Ag  Ag539     1.0  0.35714  0.71429  0.21429  1.0000
  Ag  Ag540     1.0  0.35714  0.78571  0.14286  1.0000
  Ag  Ag541     1.0  0.28571  0.71429  0.28571  1.0000
  Ag  Ag542     1.0  0.28571  0.78571  0.35714  1.0000
  Ag  Ag543     1.0  0.35714  0.71429  0.35714  1.0000
  Ag  Ag544     1.0  0.35714  0.78571  0.28571  1.0000
  Ag  Ag545     1.0  0.28571  0.71429  0.42857  1.0000
  Ag  Ag546     1.0  0.28571  0.78571  0.50000  1.0000
  Ag  Ag547     1.0  0.35714  0.71429  0.50000  1.0000
  Ag  Ag548     1.0  0.35714  0.78571  0.42857  1.0000
  Ag  Ag549     1.0  0.28571  0.71429  0.57143  1.0000
  Ag  Ag550     1.0  0.28571  0.78571  0.64286  1.0000
  Ag  Ag551     1.0  0.35714  0.71429  0.64286  1.0000
  Ag  Ag552     1.0  0.35714  0.78571  0.57143  1.0000
  Ag  Ag553     1.0  0.28571  0.71429  0.71429  1.0000
  Ag  Ag554     1.0  0.28571  0.78571  0.78571  1.0000
  Ag  Ag555     1.0  0.35714  0.71429  0.78571  1.0000
  Ag  Ag556     1.0  0.35714  0.78571  0.71429  1.0000
  Ag  Ag557     1.0  0.28571  0.71429  0.85714  1.0000
  Ag  Ag558     1.0  0.28571  0.78571  0.92857  1.0000
  Ag  Ag559     1.0  0.35714  0.71429  0.92857  1.0000
  Ag  Ag560     1.0  0.35714  0.78571  0.85714  1.0000
  Ag  Ag561     1.0  0.28571  0.85714  0.00000  1.0000
  Ag  Ag562     1.0  0.28571  0.92857  0.07143  1.0000
  Ag  Ag563     1.0  0.35714  0.85714  0.07143  1.0000
  Ag  Ag564     1.0  0.35714  0.92857  0.00000  1.0000
  Ag  Ag565     1.0  0.28571  0.85714  0.14286  1.0000
  Ag  Ag566     1.0  0.28571  0.92857  0.21429  1.0000
  Ag  Ag567     1.0  0.35714  0.85714  0.21429  1.0000
  Ag  Ag568     1.0  0.35714  0.92857  0.14286  1.0000
  Ag  Ag569     1.0  0.28571  0.85714  0.28571  1.0000
  Ag  Ag570     1.0  0.28571  0.92857  0.35714  1.0000
  Ag  Ag571     1.0  0.35714  0.85714  0.35714  1.0000
  Ag  Ag572     1.0  0.35714  0.92857  0.28571  1.0000
  Ag  Ag573     1.0  0.28571  0.85714  0.42857  1.0000
  Ag  Ag574     1.0  0.28571  0.92857  0.50000  1.0000
  Ag  Ag575     1.0  0.35714  0.85714  0.50000  1.0000
  Ag  Ag576     1.0  0.35714  0.92857  0.42857  1.0000
  Ag  Ag577     1.0  0.28571  0.85714  0.57143  1.0000
  Ag  Ag578     1.0  0.28571  0.92857  0.64286  1.0000
  Ag  Ag579     1.0  0.35714  0.85714  0.64286  1.0000
  Ag  Ag580     1.0  0.35714  0.92857  0.57143  1.0000
  Ag  Ag581     1.0  0.28571  0.85714  0.71429  1.0000
  Ag  Ag582     1.0  0.28571  0.92857  0.78571  1.0000
  Ag  Ag583     1.0  0.35714  0.85714  0.78571  1.0000
  Ag  Ag584     1.0  0.35714  0.92857  0.71429  1.0000
  Ag  Ag585     1.0  0.28571  0.85714  0.85714  1.0000
  Ag  Ag586     1.0  0.28571  0.92857  0.92857  1.0000
  Ag  Ag587     1.0  0.35714  0.85714  0.92857  1.0000
  Ag  Ag588     1.0  0.35714  0.92857  0.85714  1.0000
  Ag  Ag589     1.0  0.42857  0.00000  0.00000  1.0000
  Ag  Ag590     1.0  0.42857  0.07143  0.07143  1.0000
  Ag  Ag591     1.0  0.50000  0.00000  0.07143  1.0000
  Ag  Ag592     1.0  0.50000  0.07143  0.00000  1.0000
  Ag  Ag593     1.0  0.42857  0.00000  0.14286  1.0000
  Ag  Ag594     1.0  0.42857  0.07143  0.21429  1.0000
  Ag  Ag595     1.0  0.50000  0.00000  0.21429  1.0000
  Ag  Ag596     1.0  0.50000  0.07143  0.14286  1.0000
  Ag  Ag597     1.0  0.42857  0.00000  0.28571  1.0000
  Ag  Ag598     1.0  0.42857  0.07143  0.35714  1.0000
  Ag  Ag599     1.0  0.50000  0.00000  0.35714  1.0000
  Ag  Ag600     1.0  0.50000  0.07143  0.28571  1.0000
  Ag  Ag601     1.0  0.42857  0.00000  0.42857  1.0000
  Ag  Ag602     1.0  0.42857  0.07143  0.50000  1.0000
  Ag  Ag603     1.0  0.50000  0.00000  0.50000  1.0000
  Ag  Ag604     1.0  0.50000  0.07143  0.42857  1.0000
  Ag  Ag605     1.0  0.42857  0.00000  0.57143  1.0000
  Ag  Ag606     1.0  0.42857  0.07143  0.64286  1.0000
  Ag  Ag607     1.0  0.50000  0.00000  0.64286  1.0000
  Ag  Ag608     1.0  0.50000  0.07143  0.57143  1.0000
  Ag  Ag609     1.0  0.42857  0.00000  0.71429  1.0000
  Ag  Ag610     1.0  0.42857  0.07143  0.78571  1.0000
  Ag  Ag611     1.0  0.50000  0.00000  0.78571  1.0000
  Ag  Ag612     1.0  0.50000  0.07143  0.71429  1.0000
  Ag  Ag613     1.0  0.42857  0.00000  0.85714  1.0000
  Ag  Ag614     1.0  0.42857  0.07143  0.92857  1.0000
  Ag  Ag615     1.0  0.50000  0.00000  0.92857  1.0000
  Ag  Ag616     1.0  0.50000  0.07143  0.85714  1.0000
  Ag  Ag617     1.0  0.42857  0.14286  0.00000  1.0000
  Ag  Ag618     1.0  0.42857  0.21429  0.07143  1.0000
  Ag  Ag619     1.0  0.50000  0.14286  0.07143  1.0000
  Ag  Ag620     1.0  0.50000  0.21429  0.00000  1.0000
  Ag  Ag621     1.0  0.42857  0.14286  0.14286  1.0000
  Ag  Ag622     1.0  0.42857  0.21429  0.21429  1.0000
  Ag  Ag623     1.0  0.50000  0.14286  0.21429  1.0000
  Ag  Ag624     1.0  0.50000  0.21429  0.14286  1.0000
  Ag  Ag625     1.0  0.42857  0.14286  0.28571  1.0000
  Ag  Ag626     1.0  0.42857  0.21429  0.35714  1.0000
  Ag  Ag627     1.0  0.50000  0.14286  0.35714  1.0000
  Ag  Ag628     1.0  0.50000  0.21429  0.28571  1.0000
  Ag  Ag629     1.0  0.42857  0.14286  0.42857  1.0000
  Ag  Ag630     1.0  0.42857  0.21429  0.50000  1.0000
  Ag  Ag631     1.0  0.50000  0.14286  0.50000  1.0000
  Ag  Ag632     1.0  0.50000  0.21429  0.42857  1.0000
  Ag  Ag633     1.0  0.42857  0.14286  0.57143  1.0000
  Ag  Ag634     1.0  0.42857  0.21429  0.64286  1.0000
  Ag  Ag635     1.0  0.50000  0.14286  0.64286  1.0000
  Ag  Ag636     1.0  0.50000  0.21429  0.57143  1.0000
  Ag  Ag637     1.0  0.42857  0.14286  0.71429  1.0000
  Ag  Ag638     1.0  0.42857  0.21429  0.78571  1.0000
  Ag  Ag639     1.0  0.50000  0.14286  0.78571  1.0000
  Ag  Ag640     1.0  0.50000  0.21429  0.71429  1.0000
  Ag  Ag641     1.0  0.42857  0.14286  0.85714  1.0000
  Ag  Ag642     1.0  0.42857  0.21429  0.92857  1.0000
  Ag  Ag643     1.0  0.50000  0.14286  0.92857  1.0000
  Ag  Ag644     1.0  0.50000  0.21429  0.85714  1.0000
  Ag  Ag645     1.0  0.42857  0.28571  0.00000  1.0000
  Ag  Ag646     1.0  0.42857  0.35714  0.07143  1.0000
  Ag  Ag647     1.0  0.50000  0.28571  0.07143  1.0000
  Ag  Ag648     1.0  0.50000  0.35714  0.00000  1.0000
  Ag  Ag649     1.0  0.42857  0.28571  0.14286  1.0000
  Ag  Ag650     1.0  0.42857  0.35714  0.21429  1.0000
  Ag  Ag651     1.0  0.50000  0.28571  0.21429  1.0000
  Ag  Ag652     1.0  0.50000  0.35714  0.14286  1.0000
  Ag  Ag653     1.0  0.42857  0.28571  0.28571  1.0000
  Ag  Ag654     1.0  0.42857  0.35714  0.35714  1.0000
  Ag  Ag655     1.0  0.50000  0.28571  0.35714  1.0000
  Ag  Ag656     1.0  0.50000  0.35714  0.28571  1.0000
  Ag  Ag657     1.0  0.42857  0.28571  0.42857  1.0000
  Ag  Ag658     1.0  0.42857  0.35714  0.50000  1.0000
  Ag  Ag659     1.0  0.50000  0.28571  0.50000  1.0000
  Ag  Ag660     1.0  0.50000  0.35714  0.42857  1.0000
  Ag  Ag661     1.0  0.42857  0.28571  0.57143  1.0000
  Ag  Ag662     1.0  0.42857  0.35714  0.64286  1.0000
  Ag  Ag663     1.0  0.50000  0.28571  0.64286  1.0000
  Ag  Ag664     1.0  0.50000  0.35714  0.57143  1.0000
  Ag  Ag665     1.0  0.42857  0.28571  0.71429  1.0000
  Ag  Ag666     1.0  0.42857  0.35714  0.78571  1.0000
  Ag  Ag667     1.0  0.50000  0.28571  0.78571  1.0000
  Ag  Ag668     1.0  0.50000  0.35714  0.71429  1.0000
  Ag  Ag669     1.0  0.42857  0.28571  0.85714  1.0000
  Ag  Ag670     1.0  0.42857  0.35714  0.92857  1.0000
  Ag  Ag671     1.0  0.50000  0.28571  0.92857  1.0000
  Ag  Ag672     1.0  0.50000  0.35714  0.85714  1.0000
  Ag  Ag673     1.0  0.42857  0.42857  0.00000  1.0000
  Ag  Ag674     1.0  0.42857  0.50000  0.07143  1.0000
  Ag  Ag675     1.0  0.50000  0.42857  0.07143  1.0000
  Ag  Ag676     1.0  0.50000  0.50000  0.00000  1.0000
  Ag  Ag677     1.0  0.42857  0.42857  0.14286  1.0000
  Ag  Ag678     1.0  0.42857  0.50000  0.21429  1.0000
  Ag  Ag679     1.0  0.50000  0.42857  0.21429  1.0000
  Ag  Ag680     1.0  0.50000  0.50000  0.14286  1.0000
  Ag  Ag681     1.0  0.42857  0.42857  0.28571  1.0000
  Ag  Ag682     1.0  0.42857  0.50000  0.35714  1.0000
  Ag  Ag683     1.0  0.50000  0.42857  0.35714  1.0000
  Ag  Ag684     1.0  0.50000  0.50000  0.28571  1.0000
  Ag  Ag685     1.0  0.42857  0.42857  0.42857  1.0000
  Ag  Ag686     1.0  0.42857  0.50000  0.50000  1.0000
  Ag  Ag687     1.0  0.50000  0.42857  0.50000  1.0000
  Ag  Ag688     1.0  0.50000  0.50000  0.42857  1.0000
  Ag  Ag689     1.0  0.42857  0.42857  0.57143  1.0000
  Ag  Ag690     1.0  0.42857  0.50000  0.64286  1.0000
  Ag  Ag691     1.0  0.50000  0.42857  0.64286  1.0000
  Ag  Ag692     1.0  0.50000  0.50000  0.57143  1.0000
  Ag  Ag693     1.0  0.42857  0.42857  0.71429  1.0000
  Ag  Ag694     1.0  0.42857  0.50000  0.78571  1.0000
  Ag  Ag695     1.0  0.50000  0.42857  0.78571  1.0000
  Ag  Ag696     1.0  0.50000  0.50000  0.71429  1.0000
  Ag  Ag697     1.0  0.42857  0.42857  0.85714  1.0000
  Ag  Ag698     1.0  0.42857  0.50000  0.92857  1.0000
  Ag  Ag699     1.0  0.50000  0.42857  0.92857  1.0000
  Ag  Ag700     1.0  0.50000  0.50000  0.85714  1.0000
  Ag  Ag701     1.0  0.42857  0.57143  0.00000  1.0000
  Ag  Ag702     1.0  0.42857  0.64286  0.07143  1.0000
  Ag  Ag703     1.0  0.50000  0.57143  0.07143  1.0000
  Ag  Ag704     1.0  0.50000  0.64286  0.00000  1.0000
  Ag  Ag705     1.0  0.42857  0.57143  0.14286  1.0000
  Ag  Ag706     1.0  0.42857  0.64286  0.21429  1.0000
  Ag  Ag707     1.0  0.50000  0.57143  0.21429  1.0000
  Ag  Ag708     1.0  0.50000  0.64286  0.14286  1.0000
  Ag  Ag709     1.0  0.42857  0.57143  0.28571  1.0000
  Ag  Ag710     1.0  0.42857  0.64286  0.35714  1.0000
  Ag  Ag711     1.0  0.50000  0.57143  0.35714  1.0000
  Ag  Ag712     1.0  0.50000  0.64286  0.28571  1.0000
  Ag  Ag713     1.0  0.42857  0.57143  0.42857  1.0000
  Ag  Ag714     1.0  0.42857  0.64286  0.50000  1.0000
  Ag  Ag715     1.0  0.50000  0.57143  0.50000  1.0000
  Ag  Ag716     1.0  0.50000  0.64286  0.42857  1.0000
  Ag  Ag717     1.0  0.42857  0.57143  0.57143  1.0000
  Ag  Ag718     1.0  0.42857  0.64286  0.64286  1.0000
  Ag  Ag719     1.0  0.50000  0.57143  0.64286  1.0000
  Ag  Ag720     1.0  0.50000  0.64286  0.57143  1.0000
  Ag  Ag721     1.0  0.42857  0.57143  0.71429  1.0000
  Ag  Ag722     1.0  0.42857  0.64286  0.78571  1.0000
  Ag  Ag723     1.0  0.50000  0.57143  0.78571  1.0000
  Ag  Ag724     1.0  0.50000  0.64286  0.71429  1.0000
  Ag  Ag725     1.0  0.42857  0.57143  0.85714  1.0000
  Ag  Ag726     1.0  0.42857  0.64286  0.92857  1.0000
  Ag  Ag727     1.0  0.50000  0.57143  0.92857  1.0000
  Ag  Ag728     1.0  0.50000  0.64286  0.85714  1.0000
  Ag  Ag729     1.0  0.42857  0.71429  0.00000  1.0000
  Ag  Ag730     1.0  0.42857  0.78571  0.07143  1.0000
  Ag  Ag731     1.0  0.50000  0.71429  0.07143  1.0000
  Ag  Ag732     1.0  0.50000  0.78571  0.00000  1.0000
  Ag  Ag733     1.0  0.42857  0.71429  0.14286  1.0000
  Ag  Ag734     1.0  0.42857  0.78571  0.21429  1.0000
  Ag  Ag735     1.0  0.50000  0.71429  0.21429  1.0000
  Ag  Ag736     1.0  0.50000  0.78571  0.14286  1.0000
  Ag  Ag737     1.0  0.42857  0.71429  0.28571  1.0000
  Ag  Ag738     1.0  0.42857  0.78571  0.35714  1.0000
  Ag  Ag739     1.0  0.50000  0.71429  0.35714  1.0000
  Ag  Ag740     1.0  0.50000  0.78571  0.28571  1.0000
  Ag  Ag741     1.0  0.42857  0.71429  0.42857  1.0000
  Ag  Ag742     1.0  0.42857  0.78571  0.50000  1.0000
  Ag  Ag743     1.0  0.50000  0.71429  0.50000  1.0000
  Ag  Ag744     1.0  0.50000  0.78571  0.42857  1.0000
  Ag  Ag745     1.0  0.42857  0.71429  0.57143  1.0000
  Ag  Ag746     1.0  0.42857  0.78571  0.64286  1.0000
  Ag  Ag747     1.0  0.50000  0.71429  0.64286  1.0000
  Ag  Ag748     1.0  0.50000  0.78571  0.57143  1.0000
  Ag  Ag749     1.0  0.42857  0.71429  0.71429  1.0000
  Ag  Ag750     1.0  0.42857  0.78571  0.78571  1.0000
  Ag  Ag751     1.0  0.50000  0.71429  0.78571  1.0000
  Ag  Ag752     1.0  0.50000  0.78571  0.71429  1.0000
  Ag  Ag753     1.0  0.42857  0.71429  0.85714  1.0000
  Ag  Ag754     1.0  0.42857  0.78571  0.92857  1.0000
  Ag  Ag755     1.0  0.50000  0.71429  0.92857  1.0000
  Ag  Ag756     1.0  0.50000  0.78571  0.85714  1.0000
  Ag  Ag757     1.0  0.42857  0.85714  0.00000  1.0000
  Ag  Ag758     1.0  0.42857  0.92857  0.07143  1.0000
  Ag  Ag759     1.0  0.50000  0.85714  0.07143  1.0000
  Ag  Ag760     1.0  0.50000  0.92857  0.00000  1.0000
  Ag  Ag761     1.0  0.42857  0.85714  0.14286  1.0000
  Ag  Ag762     1.0  0.42857  0.92857  0.21429  1.0000
  Ag  Ag763     1.0  0.50000  0.85714  0.21429  1.0000
  Ag  Ag764     1.0  0.50000  0.92857  0.14286  1.0000
  Ag  Ag765     1.0  0.42857  0.85714  0.28571  1.0000
  Ag  Ag766     1.0  0.42857  0.92857  0.35714  1.0000
  Ag  Ag767     1.0  0.50000  0.85714  0.35714  1.0000
  Ag  Ag768     1.0  0.50000  0.92857  0.28571  1.0000
  Ag  Ag769     1.0  0.42857  0.85714  0.42857  1.0000
  Ag  Ag770     1.0  0.42857  0.92857  0.50000  1.0000
  Ag  Ag771     1.0  0.50000  0.85714  0.50000  1.0000
  Ag  Ag772     1.0  0.50000  0.92857  0.42857  1.0000
  Ag  Ag773     1.0  0.42857  0.85714  0.57143  1.0000
  Ag  Ag774     1.0  0.42857  0.92857  0.64286  1.0000
  Ag  Ag775     1.0  0.50000  0.85714  0.64286  1.0000
  Ag  Ag776     1.0  0.50000  0.92857  0.57143  1.0000
  Ag  Ag777     1.0  0.42857  0.85714  0.71429  1.0000
  Ag  Ag778     1.0  0.42857  0.92857  0.78571  1.0000
  Ag  Ag779     1.0  0.50000  0.85714  0.78571  1.0000
  Ag  Ag780     1.0  0.50000  0.92857  0.71429  1.0000
  Ag  Ag781     1.0  0.42857  0.85714  0.85714  1.0000
  Ag  Ag782     1.0  0.42857  0.92857  0.92857  1.0000
  Ag  Ag783     1.0  0.50000  0.85714  0.92857  1.0000
  Ag  Ag784     1.0  0.50000  0.92857  0.85714  1.0000
  Ag  Ag785     1.0  0.57143  0.00000  0.00000  1.0000
  Ag  Ag786     1.0  0.57143  0.07143  0.07143  1.0000
  Ag  Ag787     1.0  0.64286  0.00000  0.07143  1.0000
  Ag  Ag788     1.0  0.64286  0.07143  0.00000  1.0000
  Ag  Ag789     1.0  0.57143  0.00000  0.14286  1.0000
  Ag  Ag790     1.0  0.57143  0.07143  0.21429  1.0000
  Ag  Ag791     1.0  0.64286  0.00000  0.21429  1.0000
  Ag  Ag792     1.0  0.64286  0.07143  0.14286  1.0000
  Ag  Ag793     1.0  0.57143  0.00000  0.28571  1.0000
  Ag  Ag794     1.0  0.57143  0.07143  0.35714  1.0000
  Ag  Ag795     1.0  0.64286  0.00000  0.35714  1.0000
  Ag  Ag796     1.0  0.64286  0.07143  0.28571  1.0000
  Ag  Ag797     1.0  0.57143  0.00000  0.42857  1.0000
  Ag  Ag798     1.0  0.57143  0.07143  0.50000  1.0000
  Ag  Ag799     1.0  0.64286  0.00000  0.50000  1.0000
  Ag  Ag800     1.0  0.64286  0.07143  0.42857  1.0000
  Ag  Ag801     1.0  0.57143  0.00000  0.57143  1.0000
  Ag  Ag802     1.0  0.57143  0.07143  0.64286  1.0000
  Ag  Ag803     1.0  0.64286  0.00000  0.64286  1.0000
  Ag  Ag804     1.0  0.64286  0.07143  0.57143  1.0000
  Ag  Ag805     1.0  0.57143  0.00000  0.71429  1.0000
  Ag  Ag806     1.0  0.57143  0.07143  0.78571  1.0000
  Ag  Ag807     1.0  0.64286  0.00000  0.78571  1.0000
  Ag  Ag808     1.0  0.64286  0.07143  0.71429  1.0000
  Ag  Ag809     1.0  0.57143  0.00000  0.85714  1.0000
  Ag  Ag810     1.0  0.57143  0.07143  0.92857  1.0000
  Ag  Ag811     1.0  0.64286  0.00000  0.92857  1.0000
  Ag  Ag812     1.0  0.64286  0.07143  0.85714  1.0000
  Ag  Ag813     1.0  0.57143  0.14286  0.00000  1.0000
  Ag  Ag814     1.0  0.57143  0.21429  0.07143  1.0000
  Ag  Ag815     1.0  0.64286  0.14286  0.07143  1.0000
  Ag  Ag816     1.0  0.64286  0.21429  0.00000  1.0000
  Ag  Ag817     1.0  0.57143  0.14286  0.14286  1.0000
  Ag  Ag818     1.0  0.57143  0.21429  0.21429  1.0000
  Ag  Ag819     1.0  0.64286  0.14286  0.21429  1.0000
  Ag  Ag820     1.0  0.64286  0.21429  0.14286  1.0000
  Ag  Ag821     1.0  0.57143  0.14286  0.28571  1.0000
  Ag  Ag822     1.0  0.57143  0.21429  0.35714  1.0000
  Ag  Ag823     1.0  0.64286  0.14286  0.35714  1.0000
  Ag  Ag824     1.0  0.64286  0.21429  0.28571  1.0000
  Ag  Ag825     1.0  0.57143  0.14286  0.42857  1.0000
  Ag  Ag826     1.0  0.57143  0.21429  0.50000  1.0000
  Ag  Ag827     1.0  0.64286  0.14286  0.50000  1.0000
  Ag  Ag828     1.0  0.64286  0.21429  0.42857  1.0000
  Ag  Ag829     1.0  0.57143  0.14286  0.57143  1.0000
  Ag  Ag830     1.0  0.57143  0.21429  0.64286  1.0000
  Ag  Ag831     1.0  0.64286  0.14286  0.64286  1.0000
  Ag  Ag832     1.0  0.64286  0.21429  0.57143  1.0000
  Ag  Ag833     1.0  0.57143  0.14286  0.71429  1.0000
  Ag  Ag834     1.0  0.57143  0.21429  0.78571  1.0000
  Ag  Ag835     1.0  0.64286  0.14286  0.78571  1.0000
  Ag  Ag836     1.0  0.64286  0.21429  0.71429  1.0000
  Ag  Ag837     1.0  0.57143  0.14286  0.85714  1.0000
  Ag  Ag838     1.0  0.57143  0.21429  0.92857  1.0000
  Ag  Ag839     1.0  0.64286  0.14286  0.92857  1.0000
  Ag  Ag840     1.0  0.64286  0.21429  0.85714  1.0000
  Ag  Ag841     1.0  0.57143  0.28571  0.00000  1.0000
  Ag  Ag842     1.0  0.57143  0.35714  0.07143  1.0000
  Ag  Ag843     1.0  0.64286  0.28571  0.07143  1.0000
  Ag  Ag844     1.0  0.64286  0.35714  0.00000  1.0000
  Ag  Ag845     1.0  0.57143  0.28571  0.14286  1.0000
  Ag  Ag846     1.0  0.57143  0.35714  0.21429  1.0000
  Ag  Ag847     1.0  0.64286  0.28571  0.21429  1.0000
  Ag  Ag848     1.0  0.64286  0.35714  0.14286  1.0000
  Ag  Ag849     1.0  0.57143  0.28571  0.28571  1.0000
  Ag  Ag850     1.0  0.57143  0.35714  0.35714  1.0000
  Ag  Ag851     1.0  0.64286  0.28571  0.35714  1.0000
  Ag  Ag852     1.0  0.64286  0.35714  0.28571  1.0000
  Ag  Ag853     1.0  0.57143  0.28571  0.42857  1.0000
  Ag  Ag854     1.0  0.57143  0.35714  0.50000  1.0000
  Ag  Ag855     1.0  0.64286  0.28571  0.50000  1.0000
  Ag  Ag856     1.0  0.64286  0.35714  0.42857  1.0000
  Ag  Ag857     1.0  0.57143  0.28571  0.57143  1.0000
  Ag  Ag858     1.0  0.57143  0.35714  0.64286  1.0000
  Ag  Ag859     1.0  0.64286  0.28571  0.64286  1.0000
  Ag  Ag860     1.0  0.64286  0.35714  0.57143  1.0000
  Ag  Ag861     1.0  0.57143  0.28571  0.71429  1.0000
  Ag  Ag862     1.0  0.57143  0.35714  0.78571  1.0000
  Ag  Ag863     1.0  0.64286  0.28571  0.78571  1.0000
  Ag  Ag864     1.0  0.64286  0.35714  0.71429  1.0000
  Ag  Ag865     1.0  0.57143  0.28571  0.85714  1.0000
  Ag  Ag866     1.0  0.57143  0.35714  0.92857  1.0000
  Ag  Ag867     1.0  0.64286  0.28571  0.92857  1.0000
  Ag  Ag868     1.0  0.64286  0.35714  0.85714  1.0000
  Ag  Ag869     1.0  0.57143  0.42857  0.00000  1.0000
  Ag  Ag870     1.0  0.57143  0.50000  0.07143  1.0000
  Ag  Ag871     1.0  0.64286  0.42857  0.07143  1.0000
  Ag  Ag872     1.0  0.64286  0.50000  0.00000  1.0000
  Ag  Ag873     1.0  0.57143  0.42857  0.14286  1.0000
  Ag  Ag874     1.0  0.57143  0.50000  0.21429  1.0000
  Ag  Ag875     1.0  0.64286  0.42857  0.21429  1.0000
  Ag  Ag876     1.0  0.64286  0.50000  0.14286  1.0000
  Ag  Ag877     1.0  0.57143  0.42857  0.28571  1.0000
  Ag  Ag878     1.0  0.57143  0.50000  0.35714  1.0000
  Ag  Ag879     1.0  0.64286  0.42857  0.35714  1.0000
  Ag  Ag880     1.0  0.64286  0.50000  0.28571  1.0000
  Ag  Ag881     1.0  0.57143  0.42857  0.42857  1.0000
  Ag  Ag882     1.0  0.57143  0.50000  0.50000  1.0000
  Ag  Ag883     1.0  0.64286  0.42857  0.50000  1.0000
  Ag  Ag884     1.0  0.64286  0.50000  0.42857  1.0000
  Ag  Ag885     1.0  0.57143  0.42857  0.57143  1.0000
  Ag  Ag886     1.0  0.57143  0.50000  0.64286  1.0000
  Ag  Ag887     1.0  0.64286  0.42857  0.64286  1.0000
  Ag  Ag888     1.0  0.64286  0.50000  0.57143  1.0000
  Ag  Ag889     1.0  0.57143  0.42857  0.71429  1.0000
  Ag  Ag890     1.0  0.57143  0.50000  0.78571  1.0000
  Ag  Ag891     1.0  0.64286  0.42857  0.78571  1.0000
  Ag  Ag892     1.0  0.64286  0.50000  0.71429  1.0000
  Ag  Ag893     1.0  0.57143  0.42857  0.85714  1.0000
  Ag  Ag894     1.0  0.57143  0.50000  0.92857  1.0000
  Ag  Ag895     1.0  0.64286  0.42857  0.92857  1.0000
  Ag  Ag896     1.0  0.64286  0.50000  0.85714  1.0000
  Ag  Ag897     1.0  0.57143  0.57143  0.00000  1.0000
  Ag  Ag898     1.0  0.57143  0.64286  0.07143  1.0000
  Ag  Ag899     1.0  0.64286  0.57143  0.07143  1.0000
  Ag  Ag900     1.0  0.64286  0.64286  0.00000  1.0000
  Ag  Ag901     1.0  0.57143  0.57143  0.14286  1.0000
  Ag  Ag902     1.0  0.57143  0.64286  0.21429  1.0000
  Ag  Ag903     1.0  0.64286  0.57143  0.21429  1.0000
  Ag  Ag904     1.0  0.64286  0.64286  0.14286  1.0000
  Ag  Ag905     1.0  0.57143  0.57143  0.28571  1.0000
  Ag  Ag906     1.0  0.57143  0.64286  0.35714  1.0000
  Ag  Ag907     1.0  0.64286  0.57143  0.35714  1.0000
  Ag  Ag908     1.0  0.64286  0.64286  0.28571  1.0000
  Ag  Ag909     1.0  0.57143  0.57143  0.42857  1.0000
  Ag  Ag910     1.0  0.57143  0.64286  0.50000  1.0000
  Ag  Ag911     1.0  0.64286  0.57143  0.50000  1.0000
  Ag  Ag912     1.0  0.64286  0.64286  0.42857  1.0000
  Ag  Ag913     1.0  0.57143  0.57143  0.57143  1.0000
  Ag  Ag914     1.0  0.57143  0.64286  0.64286  1.0000
  Ag  Ag915     1.0  0.64286  0.57143  0.64286  1.0000
  Ag  Ag916     1.0  0.64286  0.64286  0.57143  1.0000
  Ag  Ag917     1.0  0.57143  0.57143  0.71429  1.0000
  Ag  Ag918     1.0  0.57143  0.64286  0.78571  1.0000
  Ag  Ag919     1.0  0.64286  0.57143  0.78571  1.0000
  Ag  Ag920     1.0  0.64286  0.64286  0.71429  1.0000
  Ag  Ag921     1.0  0.57143  0.57143  0.85714  1.0000
  Ag  Ag922     1.0  0.57143  0.64286  0.92857  1.0000
  Ag  Ag923     1.0  0.64286  0.57143  0.92857  1.0000
  Ag  Ag924     1.0  0.64286  0.64286  0.85714  1.0000
  Ag  Ag925     1.0  0.57143  0.71429  0.00000  1.0000
  Ag  Ag926     1.0  0.57143  0.78571  0.07143  1.0000
  Ag  Ag927     1.0  0.64286  0.71429  0.07143  1.0000
  Ag  Ag928     1.0  0.64286  0.78571  0.00000  1.0000
  Ag  Ag929     1.0  0.57143  0.71429  0.14286  1.0000
  Ag  Ag930     1.0  0.57143  0.78571  0.21429  1.0000
  Ag  Ag931     1.0  0.64286  0.71429  0.21429  1.0000
  Ag  Ag932     1.0  0.64286  0.78571  0.14286  1.0000
  Ag  Ag933     1.0  0.57143  0.71429  0.28571  1.0000
  Ag  Ag934     1.0  0.57143  0.78571  0.35714  1.0000
  Ag  Ag935     1.0  0.64286  0.71429  0.35714  1.0000
  Ag  Ag936     1.0  0.64286  0.78571  0.28571  1.0000
  Ag  Ag937     1.0  0.57143  0.71429  0.42857  1.0000
  Ag  Ag938     1.0  0.57143  0.78571  0.50000  1.0000
  Ag  Ag939     1.0  0.64286  0.71429  0.50000  1.0000
  Ag  Ag940     1.0  0.64286  0.78571  0.42857  1.0000
  Ag  Ag941     1.0  0.57143  0.71429  0.57143  1.0000
  Ag  Ag942     1.0  0.57143  0.78571  0.64286  1.0000
  Ag  Ag943     1.0  0.64286  0.71429  0.64286  1.0000
  Ag  Ag944     1.0  0.64286  0.78571  0.57143  1.0000
  Ag  Ag945     1.0  0.57143  0.71429  0.71429  1.0000
  Ag  Ag946     1.0  0.57143  0.78571  0.78571  1.0000
  Ag  Ag947     1.0  0.64286  0.71429  0.78571  1.0000
  Ag  Ag948     1.0  0.64286  0.78571  0.71429  1.0000
  Ag  Ag949     1.0  0.57143  0.71429  0.85714  1.0000
  Ag  Ag950     1.0  0.57143  0.78571  0.92857  1.0000
  Ag  Ag951     1.0  0.64286  0.71429  0.92857  1.0000
  Ag  Ag952     1.0  0.64286  0.78571  0.85714  1.0000
  Ag  Ag953     1.0  0.57143  0.85714  0.00000  1.0000
  Ag  Ag954     1.0  0.57143  0.92857  0.07143  1.0000
  Ag  Ag955     1.0  0.64286  0.85714  0.07143  1.0000
  Ag  Ag956     1.0  0.64286  0.92857  0.00000  1.0000
  Ag  Ag957     1.0  0.57143  0.85714  0.14286  1.0000
  Ag  Ag958     1.0  0.57143  0.92857  0.21429  1.0000
  Ag  Ag959     1.0  0.64286  0.85714  0.21429  1.0000
  Ag  Ag960     1.0  0.64286  0.92857  0.14286  1.0000
  Ag  Ag961     1.0  0.57143  0.85714  0.28571  1.0000
  Ag  Ag962     1.0  0.57143  0.92857  0.35714  1.0000
  Ag  Ag963     1.0  0.64286  0.85714  0.35714  1.0000
  Ag  Ag964     1.0  0.64286  0.92857  0.28571  1.0000
  Ag  Ag965     1.0  0.57143  0.85714  0.42857  1.0000
  Ag  Ag966     1.0  0.57143  0.92857  0.50000  1.0000
  Ag  Ag967     1.0  0.64286  0.85714  0.50000  1.0000
  Ag  Ag968     1.0  0.64286  0.92857  0.42857  1.0000
  Ag  Ag969     1.0  0.57143  0.85714  0.57143  1.0000
  Ag  Ag970     1.0  0.57143  0.92857  0.64286  1.0000
  Ag  Ag971     1.0  0.64286  0.85714  0.64286  1.0000
  Ag  Ag972     1.0  0.64286  0.92857  0.57143  1.0000
  Ag  Ag973     1.0  0.57143  0.85714  0.71429  1.0000
  Ag  Ag974     1.0  0.57143  0.92857  0.78571  1.0000
  Ag  Ag975     1.0  0.64286  0.85714  0.78571  1.0000
  Ag  Ag976     1.0  0.64286  0.92857  0.71429  1.0000
  Ag  Ag977     1.0  0.57143  0.85714  0.85714  1.0000
  Ag  Ag978     1.0  0.57143  0.92857  0.92857  1.0000
  Ag  Ag979     1.0  0.64286  0.85714  0.92857  1.0000
  Ag  Ag980     1.0  0.64286  0.92857  0.85714  1.0000
  Ag  Ag981     1.0  0.71429  0.00000  0.00000  1.0000
  Ag  Ag982     1.0  0.71429  0.07143  0.07143  1.0000
  Ag  Ag983     1.0  0.78571  0.00000  0.07143  1.0000
  Ag  Ag984     1.0  0.78571  0.07143  0.00000  1.0000
  Ag  Ag985     1.0  0.71429  0.00000  0.14286  1.0000
  Ag  Ag986     1.0  0.71429  0.07143  0.21429  1.0000
  Ag  Ag987     1.0  0.78571  0.00000  0.21429  1.0000
  Ag  Ag988     1.0  0.78571  0.07143  0.14286  1.0000
  Ag  Ag989     1.0  0.71429  0.00000  0.28571  1.0000
  Ag  Ag990     1.0  0.71429  0.07143  0.35714  1.0000
  Ag  Ag991     1.0  0.78571  0.00000  0.35714  1.0000
  Ag  Ag992     1.0  0.78571  0.07143  0.28571  1.0000
  Ag  Ag993     1.0  0.71429  0.00000  0.42857  1.0000
  Ag  Ag994     1.0  0.71429  0.07143  0.50000  1.0000
  Ag  Ag995     1.0  0.78571  0.00000  0.50000  1.0000
  Ag  Ag996     1.0  0.78571  0.07143  0.42857  1.0000
  Ag  Ag997     1.0  0.71429  0.00000  0.57143  1.0000
  Ag  Ag998     1.0  0.71429  0.07143  0.64286  1.0000
  Ag  Ag999     1.0  0.78571  0.00000  0.64286  1.0000
  Ag  Ag1000    1.0  0.78571  0.07143  0.57143  1.0000
  Ag  Ag1001    1.0  0.71429  0.00000  0.71429  1.0000
  Ag  Ag1002    1.0  0.71429  0.07143  0.78571  1.0000
  Ag  Ag1003    1.0  0.78571  0.00000  0.78571  1.0000
  Ag  Ag1004    1.0  0.78571  0.07143  0.71429  1.0000
  Ag  Ag1005    1.0  0.71429  0.00000  0.85714  1.0000
  Ag  Ag1006    1.0  0.71429  0.07143  0.92857  1.0000
  Ag  Ag1007    1.0  0.78571  0.00000  0.92857  1.0000
  Ag  Ag1008    1.0  0.78571  0.07143  0.85714  1.0000
  Ag  Ag1009    1.0  0.71429  0.14286  0.00000  1.0000
  Ag  Ag1010    1.0  0.71429  0.21429  0.07143  1.0000
  Ag  Ag1011    1.0  0.78571  0.14286  0.07143  1.0000
  Ag  Ag1012    1.0  0.78571  0.21429  0.00000  1.0000
  Ag  Ag1013    1.0  0.71429  0.14286  0.14286  1.0000
  Ag  Ag1014    1.0  0.71429  0.21429  0.21429  1.0000
  Ag  Ag1015    1.0  0.78571  0.14286  0.21429  1.0000
  Ag  Ag1016    1.0  0.78571  0.21429  0.14286  1.0000
  Ag  Ag1017    1.0  0.71429  0.14286  0.28571  1.0000
  Ag  Ag1018    1.0  0.71429  0.21429  0.35714  1.0000
  Ag  Ag1019    1.0  0.78571  0.14286  0.35714  1.0000
  Ag  Ag1020    1.0  0.78571  0.21429  0.28571  1.0000
  Ag  Ag1021    1.0  0.71429  0.14286  0.42857  1.0000
  Ag  Ag1022    1.0  0.71429  0.21429  0.50000  1.0000
  Ag  Ag1023    1.0  0.78571  0.14286  0.50000  1.0000
  Ag  Ag1024    1.0  0.78571  0.21429  0.42857  1.0000
  Ag  Ag1025    1.0  0.71429  0.14286  0.57143  1.0000
  Ag  Ag1026    1.0  0.71429  0.21429  0.64286  1.0000
  Ag  Ag1027    1.0  0.78571  0.14286  0.64286  1.0000
  Ag  Ag1028    1.0  0.78571  0.21429  0.57143  1.0000
  Ag  Ag1029    1.0  0.71429  0.14286  0.71429  1.0000
  Ag  Ag1030    1.0  0.71429  0.21429  0.78571  1.0000
  Ag  Ag1031    1.0  0.78571  0.14286  0.78571  1.0000
  Ag  Ag1032    1.0  0.78571  0.21429  0.71429  1.0000
  Ag  Ag1033    1.0  0.71429  0.14286  0.85714  1.0000
  Ag  Ag1034    1.0  0.71429  0.21429  0.92857  1.0000
  Ag  Ag1035    1.0  0.78571  0.14286  0.92857  1.0000
  Ag  Ag1036    1.0  0.78571  0.21429  0.85714  1.0000
  Ag  Ag1037    1.0  0.71429  0.28571  0.00000  1.0000
  Ag  Ag1038    1.0  0.71429  0.35714  0.07143  1.0000
  Ag  Ag1039    1.0  0.78571  0.28571  0.07143  1.0000
  Ag  Ag1040    1.0  0.78571  0.35714  0.00000  1.0000
  Ag  Ag1041    1.0  0.71429  0.28571  0.14286  1.0000
  Ag  Ag1042    1.0  0.71429  0.35714  0.21429  1.0000
  Ag  Ag1043    1.0  0.78571  0.28571  0.21429  1.0000
  Ag  Ag1044    1.0  0.78571  0.35714  0.14286  1.0000
  Ag  Ag1045    1.0  0.71429  0.28571  0.28571  1.0000
  Ag  Ag1046    1.0  0.71429  0.35714  0.35714  1.0000
  Ag  Ag1047    1.0  0.78571  0.28571  0.35714  1.0000
  Ag  Ag1048    1.0  0.78571  0.35714  0.28571  1.0000
  Ag  Ag1049    1.0  0.71429  0.28571  0.42857  1.0000
  Ag  Ag1050    1.0  0.71429  0.35714  0.50000  1.0000
  Ag  Ag1051    1.0  0.78571  0.28571  0.50000  1.0000
  Ag  Ag1052    1.0  0.78571  0.35714  0.42857  1.0000
  Ag  Ag1053    1.0  0.71429  0.28571  0.57143  1.0000
  Ag  Ag1054    1.0  0.71429  0.35714  0.64286  1.0000
  Ag  Ag1055    1.0  0.78571  0.28571  0.64286  1.0000
  Ag  Ag1056    1.0  0.78571  0.35714  0.57143  1.0000
  Ag  Ag1057    1.0  0.71429  0.28571  0.71429  1.0000
  Ag  Ag1058    1.0  0.71429  0.35714  0.78571  1.0000
  Ag  Ag1059    1.0  0.78571  0.28571  0.78571  1.0000
  Ag  Ag1060    1.0  0.78571  0.35714  0.71429  1.0000
  Ag  Ag1061    1.0  0.71429  0.28571  0.85714  1.0000
  Ag  Ag1062    1.0  0.71429  0.35714  0.92857  1.0000
  Ag  Ag1063    1.0  0.78571  0.28571  0.92857  1.0000
  Ag  Ag1064    1.0  0.78571  0.35714  0.85714  1.0000
  Ag  Ag1065    1.0  0.71429  0.42857  0.00000  1.0000
  Ag  Ag1066    1.0  0.71429  0.50000  0.07143  1.0000
  Ag  Ag1067    1.0  0.78571  0.42857  0.07143  1.0000
  Ag  Ag1068    1.0  0.78571  0.50000  0.00000  1.0000
  Ag  Ag1069    1.0  0.71429  0.42857  0.14286  1.0000
  Ag  Ag1070    1.0  0.71429  0.50000  0.21429  1.0000
  Ag  Ag1071    1.0  0.78571  0.42857  0.21429  1.0000
  Ag  Ag1072    1.0  0.78571  0.50000  0.14286  1.0000
  Ag  Ag1073    1.0  0.71429  0.42857  0.28571  1.0000
  Ag  Ag1074    1.0  0.71429  0.50000  0.35714  1.0000
  Ag  Ag1075    1.0  0.78571  0.42857  0.35714  1.0000
  Ag  Ag1076    1.0  0.78571  0.50000  0.28571  1.0000
  Ag  Ag1077    1.0  0.71429  0.42857  0.42857  1.0000
  Ag  Ag1078    1.0  0.71429  0.50000  0.50000  1.0000
  Ag  Ag1079    1.0  0.78571  0.42857  0.50000  1.0000
  Ag  Ag1080    1.0  0.78571  0.50000  0.42857  1.0000
  Ag  Ag1081    1.0  0.71429  0.42857  0.57143  1.0000
  Ag  Ag1082    1.0  0.71429  0.50000  0.64286  1.0000
  Ag  Ag1083    1.0  0.78571  0.42857  0.64286  1.0000
  Ag  Ag1084    1.0  0.78571  0.50000  0.57143  1.0000
  Ag  Ag1085    1.0  0.71429  0.42857  0.71429  1.0000
  Ag  Ag1086    1.0  0.71429  0.50000  0.78571  1.0000
  Ag  Ag1087    1.0  0.78571  0.42857  0.78571  1.0000
  Ag  Ag1088    1.0  0.78571  0.50000  0.71429  1.0000
  Ag  Ag1089    1.0  0.71429  0.42857  0.85714  1.0000
  Ag  Ag1090    1.0  0.71429  0.50000  0.92857  1.0000
  Ag  Ag1091    1.0  0.78571  0.42857  0.92857  1.0000
  Ag  Ag1092    1.0  0.78571  0.50000  0.85714  1.0000
  Ag  Ag1093    1.0  0.71429  0.57143  0.00000  1.0000
  Ag  Ag1094    1.0  0.71429  0.64286  0.07143  1.0000
  Ag  Ag1095    1.0  0.78571  0.57143  0.07143  1.0000
  Ag  Ag1096    1.0  0.78571  0.64286  0.00000  1.0000
  Ag  Ag1097    1.0  0.71429  0.57143  0.14286  1.0000
  Ag  Ag1098    1.0  0.71429  0.64286  0.21429  1.0000
  Ag  Ag1099    1.0  0.78571  0.57143  0.21429  1.0000
  Ag  Ag1100    1.0  0.78571  0.64286  0.14286  1.0000
  Ag  Ag1101    1.0  0.71429  0.57143  0.28571  1.0000
  Ag  Ag1102    1.0  0.71429  0.64286  0.35714  1.0000
  Ag  Ag1103    1.0  0.78571  0.57143  0.35714  1.0000
  Ag  Ag1104    1.0  0.78571  0.64286  0.28571  1.0000
  Ag  Ag1105    1.0  0.71429  0.57143  0.42857  1.0000
  Ag  Ag1106    1.0  0.71429  0.64286  0.50000  1.0000
  Ag  Ag1107    1.0  0.78571  0.57143  0.50000  1.0000
  Ag  Ag1108    1.0  0.78571  0.64286  0.42857  1.0000
  Ag  Ag1109    1.0  0.71429  0.57143  0.57143  1.0000
  Ag  Ag1110    1.0  0.71429  0.64286  0.64286  1.0000
  Ag  Ag1111    1.0  0.78571  0.57143  0.64286  1.0000
  Ag  Ag1112    1.0  0.78571  0.64286  0.57143  1.0000
  Ag  Ag1113    1.0  0.71429  0.57143  0.71429  1.0000
  Ag  Ag1114    1.0  0.71429  0.64286  0.78571  1.0000
  Ag  Ag1115    1.0  0.78571  0.57143  0.78571  1.0000
  Ag  Ag1116    1.0  0.78571  0.64286  0.71429  1.0000
  Ag  Ag1117    1.0  0.71429  0.57143  0.85714  1.0000
  Ag  Ag1118    1.0  0.71429  0.64286  0.92857  1.0000
  Ag  Ag1119    1.0  0.78571  0.57143  0.92857  1.0000
  Ag  Ag1120    1.0  0.78571  0.64286  0.85714  1.0000
  Ag  Ag1121    1.0  0.71429  0.71429  0.00000  1.0000
  Ag  Ag1122    1.0  0.71429  0.78571  0.07143  1.0000
  Ag  Ag1123    1.0  0.78571  0.71429  0.07143  1.0000
  Ag  Ag1124    1.0  0.78571  0.78571  0.00000  1.0000
  Ag  Ag1125    1.0  0.71429  0.71429  0.14286  1.0000
  Ag  Ag1126    1.0  0.71429  0.78571  0.21429  1.0000
  Ag  Ag1127    1.0  0.78571  0.71429  0.21429  1.0000
  Ag  Ag1128    1.0  0.78571  0.78571  0.14286  1.0000
  Ag  Ag1129    1.0  0.71429  0.71429  0.28571  1.0000
  Ag  Ag1130    1.0  0.71429  0.78571  0.35714  1.0000
  Ag  Ag1131    1.0  0.78571  0.71429  0.35714  1.0000
  Ag  Ag1132    1.0  0.78571  0.78571  0.28571  1.0000
  Ag  Ag1133    1.0  0.71429  0.71429  0.42857  1.0000
  Ag  Ag1134    1.0  0.71429  0.78571  0.50000  1.0000
  Ag  Ag1135    1.0  0.78571  0.71429  0.50000  1.0000
  Ag  Ag1136    1.0  0.78571  0.78571  0.42857  1.0000
  Ag  Ag1137    1.0  0.71429  0.71429  0.57143  1.0000
  Ag  Ag1138    1.0  0.71429  0.78571  0.64286  1.0000
  Ag  Ag1139    1.0  0.78571  0.71429  0.64286  1.0000
  Ag  Ag1140    1.0  0.78571  0.78571  0.57143  1.0000
  Ag  Ag1141    1.0  0.71429  0.71429  0.71429  1.0000
  Ag  Ag1142    1.0  0.71429  0.78571  0.78571  1.0000
  Ag  Ag1143    1.0  0.78571  0.71429  0.78571  1.0000
  Ag  Ag1144    1.0  0.78571  0.78571  0.71429  1.0000
  Ag  Ag1145    1.0  0.71429  0.71429  0.85714  1.0000
  Ag  Ag1146    1.0  0.71429  0.78571  0.92857  1.0000
  Ag  Ag1147    1.0  0.78571  0.71429  0.92857  1.0000
  Ag  Ag1148    1.0  0.78571  0.78571  0.85714  1.0000
  Ag  Ag1149    1.0  0.71429  0.85714  0.00000  1.0000
  Ag  Ag1150    1.0  0.71429  0.92857  0.07143  1.0000
  Ag  Ag1151    1.0  0.78571  0.85714  0.07143  1.0000
  Ag  Ag1152    1.0  0.78571  0.92857  0.00000  1.0000
  Ag  Ag1153    1.0  0.71429  0.85714  0.14286  1.0000
  Ag  Ag1154    1.0  0.71429  0.92857  0.21429  1.0000
  Ag  Ag1155    1.0  0.78571  0.85714  0.21429  1.0000
  Ag  Ag1156    1.0  0.78571  0.92857  0.14286  1.0000
  Ag  Ag1157    1.0  0.71429  0.85714  0.28571  1.0000
  Ag  Ag1158    1.0  0.71429  0.92857  0.35714  1.0000
  Ag  Ag1159    1.0  0.78571  0.85714  0.35714  1.0000
  Ag  Ag1160    1.0  0.78571  0.92857  0.28571  1.0000
  Ag  Ag1161    1.0  0.71429  0.85714  0.42857  1.0000
  Ag  Ag1162    1.0  0.71429  0.92857  0.50000  1.0000
  Ag  Ag1163    1.0  0.78571  0.85714  0.50000  1.0000
  Ag  Ag1164    1.0  0.78571  0.92857  0.42857  1.0000
  Ag  Ag1165    1.0  0.71429  0.85714  0.57143  1.0000
  Ag  Ag1166    1.0  0.71429  0.92857  0.64286  1.0000
  Ag  Ag1167    1.0  0.78571  0.85714  0.64286  1.0000
  Ag  Ag1168    1.0  0.78571  0.92857  0.57143  1.0000
  Ag  Ag1169    1.0  0.71429  0.85714  0.71429  1.0000
  Ag  Ag1170    1.0  0.71429  0.92857  0.78571  1.0000
  Ag  Ag1171    1.0  0.78571  0.85714  0.78571  1.0000
  Ag  Ag1172    1.0  0.78571  0.92857  0.71429  1.0000
  Ag  Ag1173    1.0  0.71429  0.85714  0.85714  1.0000
  Ag  Ag1174    1.0  0.71429  0.92857  0.92857  1.0000
  Ag  Ag1175    1.0  0.78571  0.85714  0.92857  1.0000
  Ag  Ag1176    1.0  0.78571  0.92857  0.85714  1.0000
  Ag  Ag1177    1.0  0.85714  0.00000  0.00000  1.0000
  Ag  Ag1178    1.0  0.85714  0.07143  0.07143  1.0000
  Ag  Ag1179    1.0  0.92857  0.00000  0.07143  1.0000
  Ag  Ag1180    1.0  0.92857  0.07143  0.00000  1.0000
  Ag  Ag1181    1.0  0.85714  0.00000  0.14286  1.0000
  Ag  Ag1182    1.0  0.85714  0.07143  0.21429  1.0000
  Ag  Ag1183    1.0  0.92857  0.00000  0.21429  1.0000
  Ag  Ag1184    1.0  0.92857  0.07143  0.14286  1.0000
  Ag  Ag1185    1.0  0.85714  0.00000  0.28571  1.0000
  Ag  Ag1186    1.0  0.85714  0.07143  0.35714  1.0000
  Ag  Ag1187    1.0  0.92857  0.00000  0.35714  1.0000
  Ag  Ag1188    1.0  0.92857  0.07143  0.28571  1.0000
  Ag  Ag1189    1.0  0.85714  0.00000  0.42857  1.0000
  Ag  Ag1190    1.0  0.85714  0.07143  0.50000  1.0000
  Ag  Ag1191    1.0  0.92857  0.00000  0.50000  1.0000
  Ag  Ag1192    1.0  0.92857  0.07143  0.42857  1.0000
  Ag  Ag1193    1.0  0.85714  0.00000  0.57143  1.0000
  Ag  Ag1194    1.0  0.85714  0.07143  0.64286  1.0000
  Ag  Ag1195    1.0  0.92857  0.00000  0.64286  1.0000
  Ag  Ag1196    1.0  0.92857  0.07143  0.57143  1.0000
  Ag  Ag1197    1.0  0.85714  0.00000  0.71429  1.0000
  Ag  Ag1198    1.0  0.85714  0.07143  0.78571  1.0000
  Ag  Ag1199    1.0  0.92857  0.00000  0.78571  1.0000
  Ag  Ag1200    1.0  0.92857  0.07143  0.71429  1.0000
  Ag  Ag1201    1.0  0.85714  0.00000  0.85714  1.0000
  Ag  Ag1202    1.0  0.85714  0.07143  0.92857  1.0000
  Ag  Ag1203    1.0  0.92857  0.00000  0.92857  1.0000
  Ag  Ag1204    1.0  0.92857  0.07143  0.85714  1.0000
  Ag  Ag1205    1.0  0.85714  0.14286  0.00000  1.0000
  Ag  Ag1206    1.0  0.85714  0.21429  0.07143  1.0000
  Ag  Ag1207    1.0  0.92857  0.14286  0.07143  1.0000
  Ag  Ag1208    1.0  0.92857  0.21429  0.00000  1.0000
  Ag  Ag1209    1.0  0.85714  0.14286  0.14286  1.0000
  Ag  Ag1210    1.0  0.85714  0.21429  0.21429  1.0000
  Ag  Ag1211    1.0  0.92857  0.14286  0.21429  1.0000
  Ag  Ag1212    1.0  0.92857  0.21429  0.14286  1.0000
  Ag  Ag1213    1.0  0.85714  0.14286  0.28571  1.0000
  Ag  Ag1214    1.0  0.85714  0.21429  0.35714  1.0000
  Ag  Ag1215    1.0  0.92857  0.14286  0.35714  1.0000
  Ag  Ag1216    1.0  0.92857  0.21429  0.28571  1.0000
  Ag  Ag1217    1.0  0.85714  0.14286  0.42857  1.0000
  Ag  Ag1218    1.0  0.85714  0.21429  0.50000  1.0000
  Ag  Ag1219    1.0  0.92857  0.14286  0.50000  1.0000
  Ag  Ag1220    1.0  0.92857  0.21429  0.42857  1.0000
  Ag  Ag1221    1.0  0.85714  0.14286  0.57143  1.0000
  Ag  Ag1222    1.0  0.85714  0.21429  0.64286  1.0000
  Ag  Ag1223    1.0  0.92857  0.14286  0.64286  1.0000
  Ag  Ag1224    1.0  0.92857  0.21429  0.57143  1.0000
  Ag  Ag1225    1.0  0.85714  0.14286  0.71429  1.0000
  Ag  Ag1226    1.0  0.85714  0.21429  0.78571  1.0000
  Ag  Ag1227    1.0  0.92857  0.14286  0.78571  1.0000
  Ag  Ag1228    1.0  0.92857  0.21429  0.71429  1.0000
  Ag  Ag1229    1.0  0.85714  0.14286  0.85714  1.0000
  Ag  Ag1230    1.0  0.85714  0.21429  0.92857  1.0000
  Ag  Ag1231    1.0  0.92857  0.14286  0.92857  1.0000
  Ag  Ag1232    1.0  0.92857  0.21429  0.85714  1.0000
  Ag  Ag1233    1.0  0.85714  0.28571  0.00000  1.0000
  Ag  Ag1234    1.0  0.85714  0.35714  0.07143  1.0000
  Ag  Ag1235    1.0  0.92857  0.28571  0.07143  1.0000
  Ag  Ag1236    1.0  0.92857  0.35714  0.00000  1.0000
  Ag  Ag1237    1.0  0.85714  0.28571  0.14286  1.0000
  Ag  Ag1238    1.0  0.85714  0.35714  0.21429  1.0000
  Ag  Ag1239    1.0  0.92857  0.28571  0.21429  1.0000
  Ag  Ag1240    1.0  0.92857  0.35714  0.14286  1.0000
  Ag  Ag1241    1.0  0.85714  0.28571  0.28571  1.0000
  Ag  Ag1242    1.0  0.85714  0.35714  0.35714  1.0000
  Ag  Ag1243    1.0  0.92857  0.28571  0.35714  1.0000
  Ag  Ag1244    1.0  0.92857  0.35714  0.28571  1.0000
  Ag  Ag1245    1.0  0.85714  0.28571  0.42857  1.0000
  Ag  Ag1246    1.0  0.85714  0.35714  0.50000  1.0000
  Ag  Ag1247    1.0  0.92857  0.28571  0.50000  1.0000
  Ag  Ag1248    1.0  0.92857  0.35714  0.42857  1.0000
  Ag  Ag1249    1.0  0.85714  0.28571  0.57143  1.0000
  Ag  Ag1250    1.0  0.85714  0.35714  0.64286  1.0000
  Ag  Ag1251    1.0  0.92857  0.28571  0.64286  1.0000
  Ag  Ag1252    1.0  0.92857  0.35714  0.57143  1.0000
  Ag  Ag1253    1.0  0.85714  0.28571  0.71429  1.0000
  Ag  Ag1254    1.0  0.85714  0.35714  0.78571  1.0000
  Ag  Ag1255    1.0  0.92857  0.28571  0.78571  1.0000
  Ag  Ag1256    1.0  0.92857  0.35714  0.71429  1.0000
  Ag  Ag1257    1.0  0.85714  0.28571  0.85714  1.0000
  Ag  Ag1258    1.0  0.85714  0.35714  0.92857  1.0000
  Ag  Ag1259    1.0  0.92857  0.28571  0.92857  1.0000
  Ag  Ag1260    1.0  0.92857  0.35714  0.85714  1.0000
  Ag  Ag1261    1.0  0.85714  0.42857  0.00000  1.0000
  Ag  Ag1262    1.0  0.85714  0.50000  0.07143  1.0000
  Ag  Ag1263    1.0  0.92857  0.42857  0.07143  1.0000
  Ag  Ag1264    1.0  0.92857  0.50000  0.00000  1.0000
  Ag  Ag1265    1.0  0.85714  0.42857  0.14286  1.0000
  Ag  Ag1266    1.0  0.85714  0.50000  0.21429  1.0000
  Ag  Ag1267    1.0  0.92857  0.42857  0.21429  1.0000
  Ag  Ag1268    1.0  0.92857  0.50000  0.14286  1.0000
  Ag  Ag1269    1.0  0.85714  0.42857  0.28571  1.0000
  Ag  Ag1270    1.0  0.85714  0.50000  0.35714  1.0000
  Ag  Ag1271    1.0  0.92857  0.42857  0.35714  1.0000
  Ag  Ag1272    1.0  0.92857  0.50000  0.28571  1.0000
  Ag  Ag1273    1.0  0.85714  0.42857  0.42857  1.0000
  Ag  Ag1274    1.0  0.85714  0.50000  0.50000  1.0000
  Ag  Ag1275    1.0  0.92857  0.42857  0.50000  1.0000
  Ag  Ag1276    1.0  0.92857  0.50000  0.42857  1.0000
  Ag  Ag1277    1.0  0.85714  0.42857  0.57143  1.0000
  Ag  Ag1278    1.0  0.85714  0.50000  0.64286  1.0000
  Ag  Ag1279    1.0  0.92857  0.42857  0.64286  1.0000
  Ag  Ag1280    1.0  0.92857  0.50000  0.57143  1.0000
  Ag  Ag1281    1.0  0.85714  0.42857  0.71429  1.0000
  Ag  Ag1282    1.0  0.85714  0.50000  0.78571  1.0000
  Ag  Ag1283    1.0  0.92857  0.42857  0.78571  1.0000
  Ag  Ag1284    1.0  0.92857  0.50000  0.71429  1.0000
  Ag  Ag1285    1.0  0.85714  0.42857  0.85714  1.0000
  Ag  Ag1286    1.0  0.85714  0.50000  0.92857  1.0000
  Ag  Ag1287    1.0  0.92857  0.42857  0.92857  1.0000
  Ag  Ag1288    1.0  0.92857  0.50000  0.85714  1.0000
  Ag  Ag1289    1.0  0.85714  0.57143  0.00000  1.0000
  Ag  Ag1290    1.0  0.85714  0.64286  0.07143  1.0000
  Ag  Ag1291    1.0  0.92857  0.57143  0.07143  1.0000
  Ag  Ag1292    1.0  0.92857  0.64286  0.00000  1.0000
  Ag  Ag1293    1.0  0.85714  0.57143  0.14286  1.0000
  Ag  Ag1294    1.0  0.85714  0.64286  0.21429  1.0000
  Ag  Ag1295    1.0  0.92857  0.57143  0.21429  1.0000
  Ag  Ag1296    1.0  0.92857  0.64286  0.14286  1.0000
  Ag  Ag1297    1.0  0.85714  0.57143  0.28571  1.0000
  Ag  Ag1298    1.0  0.85714  0.64286  0.35714  1.0000
  Ag  Ag1299    1.0  0.92857  0.57143  0.35714  1.0000
  Ag  Ag1300    1.0  0.92857  0.64286  0.28571  1.0000
  Ag  Ag1301    1.0  0.85714  0.57143  0.42857  1.0000
  Ag  Ag1302    1.0  0.85714  0.64286  0.50000  1.0000
  Ag  Ag1303    1.0  0.92857  0.57143  0.50000  1.0000
  Ag  Ag1304    1.0  0.92857  0.64286  0.42857  1.0000
  Ag  Ag1305    1.0  0.85714  0.57143  0.57143  1.0000
  Ag  Ag1306    1.0  0.85714  0.64286  0.64286  1.0000
  Ag  Ag1307    1.0  0.92857  0.57143  0.64286  1.0000
  Ag  Ag1308    1.0  0.92857  0.64286  0.57143  1.0000
  Ag  Ag1309    1.0  0.85714  0.57143  0.71429  1.0000
  Ag  Ag1310    1.0  0.85714  0.64286  0.78571  1.0000
  Ag  Ag1311    1.0  0.92857  0.57143  0.78571  1.0000
  Ag  Ag1312    1.0  0.92857  0.64286  0.71429  1.0000
  Ag  Ag1313    1.0  0.85714  0.57143  0.85714  1.0000
  Ag  Ag1314    1.0  0.85714  0.64286  0.92857  1.0000
  Ag  Ag1315    1.0  0.92857  0.57143  0.92857  1.0000
  Ag  Ag1316    1.0  0.92857  0.64286  0.85714  1.0000
  Ag  Ag1317    1.0  0.85714  0.71429  0.00000  1.0000
  Ag  Ag1318    1.0  0.85714  0.78571  0.07143  1.0000
  Ag  Ag1319    1.0  0.92857  0.71429  0.07143  1.0000
  Ag  Ag1320    1.0  0.92857  0.78571  0.00000  1.0000
  Ag  Ag1321    1.0  0.85714  0.71429  0.14286  1.0000
  Ag  Ag1322    1.0  0.85714  0.78571  0.21429  1.0000
  Ag  Ag1323    1.0  0.92857  0.71429  0.21429  1.0000
  Ag  Ag1324    1.0  0.92857  0.78571  0.14286  1.0000
  Ag  Ag1325    1.0  0.85714  0.71429  0.28571  1.0000
  Ag  Ag1326    1.0  0.85714  0.78571  0.35714  1.0000
  Ag  Ag1327    1.0  0.92857  0.71429  0.35714  1.0000
  Ag  Ag1328    1.0  0.92857  0.78571  0.28571  1.0000
  Ag  Ag1329    1.0  0.85714  0.71429  0.42857  1.0000
  Ag  Ag1330    1.0  0.85714  0.78571  0.50000  1.0000
  Ag  Ag1331    1.0  0.92857  0.71429  0.50000  1.0000
  Ag  Ag1332    1.0  0.92857  0.78571  0.42857  1.0000
  Ag  Ag1333    1.0  0.85714  0.71429  0.57143  1.0000
  Ag  Ag1334    1.0  0.85714  0.78571  0.64286  1.0000
  Ag  Ag1335    1.0  0.92857  0.71429  0.64286  1.0000
  Ag  Ag1336    1.0  0.92857  0.78571  0.57143  1.0000
  Ag  Ag1337    1.0  0.85714  0.71429  0.71429  1.0000
  Ag  Ag1338    1.0  0.85714  0.78571  0.78571  1.0000
  Ag  Ag1339    1.0  0.92857  0.71429  0.78571  1.0000
  Ag  Ag1340    1.0  0.92857  0.78571  0.71429  1.0000
  Ag  Ag1341    1.0  0.85714  0.71429  0.85714  1.0000
  Ag  Ag1342    1.0  0.85714  0.78571  0.92857  1.0000
  Ag  Ag1343    1.0  0.92857  0.71429  0.92857  1.0000
  Ag  Ag1344    1.0  0.92857  0.78571  0.85714  1.0000
  Ag  Ag1345    1.0  0.85714  0.85714  0.00000  1.0000
  Ag  Ag1346    1.0  0.85714  0.92857  0.07143  1.0000
  Ag  Ag1347    1.0  0.92857  0.85714  0.07143  1.0000
  Ag  Ag1348    1.0  0.92857  0.92857  0.00000  1.0000
  Ag  Ag1349    1.0  0.85714  0.85714  0.14286  1.0000
  Ag  Ag1350    1.0  0.85714  0.92857  0.21429  1.0000
  Ag  Ag1351    1.0  0.92857  0.85714  0.21429  1.0000
  Ag  Ag1352    1.0  0.92857  0.92857  0.14286  1.0000
  Ag  Ag1353    1.0  0.85714  0.85714  0.28571  1.0000
  Ag  Ag1354    1.0  0.85714  0.92857  0.35714  1.0000
  Ag  Ag1355    1.0  0.92857  0.85714  0.35714  1.0000
  Ag  Ag1356    1.0  0.92857  0.92857  0.28571  1.0000
  Ag  Ag1357    1.0  0.85714  0.85714  0.42857  1.0000
  Ag  Ag1358    1.0  0.85714  0.92857  0.50000  1.0000
  Ag  Ag1359    1.0  0.92857  0.85714  0.50000  1.0000
  Ag  Ag1360    1.0  0.92857  0.92857  0.42857  1.0000
  Ag  Ag1361    1.0  0.85714  0.85714  0.57143  1.0000
  Ag  Ag1362    1.0  0.85714  0.92857  0.64286  1.0000
  Ag  Ag1363    1.0  0.92857  0.85714  0.64286  1.0000
  Ag  Ag1364    1.0  0.92857  0.92857  0.57143  1.0000
  Ag  Ag1365    1.0  0.85714  0.85714  0.71429  1.0000
  Ag  Ag1366    1.0  0.85714  0.92857  0.78571  1.0000
  Ag  Ag1367    1.0  0.92857  0.85714  0.78571  1.0000
  Ag  Ag1368    1.0  0.92857  0.92857  0.71429  1.0000
  Ag  Ag1369    1.0  0.85714  0.85714  0.85714  1.0000
  Ag  Ag1370    1.0  0.85714  0.92857  0.92857  1.0000
  Ag  Ag1371    1.0  0.92857  0.85714  0.92857  1.0000
  Ag  Ag1372    1.0  0.92857  0.92857  0.85714  1.0000
