data_image0
_chemical_formula_structural       Ag5324
_chemical_formula_sum              "Ag5324"
_cell_length_a       44.99
_cell_length_b       44.99
_cell_length_c       44.99
_cell_angle_alpha    90
_cell_angle_beta     90
_cell_angle_gamma    90

_space_group_name_H-M_alt    "P 1"
_space_group_IT_number       1

loop_
  _space_group_symop_operation_xyz
  'x, y, z'

loop_
  _atom_site_type_symbol
  _atom_site_label
  _atom_site_symmetry_multiplicity
  _atom_site_fract_x
  _atom_site_fract_y
  _atom_site_fract_z
  _atom_site_occupancy
  Ag  Ag1       1.0  0.00000  0.00000  0.00000  1.0000
  Ag  Ag2       1.0  0.00000  0.04545  0.04545  1.0000
  Ag  Ag3       1.0  0.04545  0.00000  0.04545  1.0000
  Ag  Ag4       1.0  0.04545  0.04545  0.00000  1.0000
  Ag  Ag5       1.0  0.00000  0.00000  0.09091  1.0000
  Ag  Ag6       1.0  0.00000  0.04545  0.13636  1.0000
  Ag  Ag7       1.0  0.04545  0.00000  0.13636  1.0000
  Ag  Ag8       1.0  0.04545  0.04545  0.09091  1.0000
  Ag  Ag9       1.0  0.00000  0.00000  0.18182  1.0000
  Ag  Ag10      1.0  0.00000  0.04545  0.22727  1.0000
  Ag  Ag11      1.0  0.04545  0.00000  0.22727  1.0000
  Ag  Ag12      1.0  0.04545  0.04545  0.18182  1.0000
  Ag  Ag13      1.0  0.00000  0.00000  0.27273  1.0000
  Ag  Ag14      1.0  0.00000  0.04545  0.31818  1.0000
  Ag  Ag15      1.0  0.04545  0.00000  0.31818  1.0000
  Ag  Ag16      1.0  0.04545  0.04545  0.27273  1.0000
  Ag  Ag17      1.0  0.00000  0.00000  0.36364  1.0000
  Ag  Ag18      1.0  0.00000  0.04545  0.40909  1.0000
  Ag  Ag19      1.0  0.04545  0.00000  0.40909  1.0000
  Ag  Ag20      1.0  0.04545  0.04545  0.36364  1.0000
  Ag  Ag21      1.0  0.00000  0.00000  0.45455  1.0000
  Ag  Ag22      1.0  0.00000  0.04545  0.50000  1.0000
  Ag  Ag23      1.0  0.04545  0.00000  0.50000  1.0000
  Ag  Ag24      1.0  0.04545  0.04545  0.45455  1.0000
  Ag  Ag25      1.0  0.00000  0.00000  0.54545  1.0000
  Ag  Ag26      1.0  0.00000  0.04545  0.59091  1.0000
  Ag  Ag27      1.0  0.04545  0.00000  0.59091  1.0000
  Ag  Ag28      1.0  0.04545  0.04545  0.54545  1.0000
  Ag  Ag29      1.0  0.00000  0.00000  0.63636  1.0000
  Ag  Ag30      1.0  0.00000  0.04545  0.68182  1.0000
  Ag  Ag31      1.0  0.04545  0.00000  0.68182  1.0000
  Ag  Ag32      1.0  0.04545  0.04545  0.63636  1.0000
  Ag  Ag33      1.0  0.00000  0.00000  0.72727  1.0000
  Ag  Ag34      1.0  0.00000  0.04545  0.77273  1.0000
  Ag  Ag35      1.0  0.04545  0.00000  0.77273  1.0000
  Ag  Ag36      1.0  0.04545  0.04545  0.72727  1.0000
  Ag  Ag37      1.0  0.00000  0.00000  0.81818  1.0000
  Ag  Ag38      1.0  0.00000  0.04545  0.86364  1.0000
  Ag  Ag39      1.0  0.04545  0.00000  0.86364  1.0000
  Ag  Ag40      1.0  0.04545  0.04545  0.81818  1.0000
  Ag  Ag41      1.0  0.00000  0.00000  0.90909  1.0000
  Ag  Ag42      1.0  0.00000  0.04545  0.95455  1.0000
  Ag  Ag43      1.0  0.04545  0.00000  0.95455  1.0000
  Ag  Ag44      1.0  0.04545  0.04545  0.90909  1.0000
  Ag  Ag45      1.0  0.00000  0.09091  0.00000  1.0000
  Ag  Ag46      1.0  0.00000  0.13636  0.04545  1.0000
  Ag  Ag47      1.0  0.04545  0.09091  0.04545  1.0000
  Ag  Ag48      1.0  0.04545  0.13636  0.00000  1.0000
  Ag  Ag49      1.0  0.00000  0.09091  0.09091  1.0000
  Ag  Ag50      1.0  0.00000  0.13636  0.13636  1.0000
  Ag  Ag51      1.0  0.04545  0.09091  0.13636  1.0000
  Ag  Ag52      1.0  0.04545  0.13636  0.09091  1.0000
  Ag  Ag53      1.0  0.00000  0.09091  0.18182  1.0000
  Ag  Ag54      1.0  0.00000  0.13636  0.22727  1.0000
  Ag  Ag55      1.0  0.04545  0.09091  0.22727  1.0000
  Ag  Ag56      1.0  0.04545  0.13636  0.18182  1.0000
  Ag  Ag57      1.0  0.00000  0.09091  0.27273  1.0000
  Ag  Ag58      1.0  0.00000  0.13636  0.31818  1.0000
  Ag  Ag59      1.0  0.04545  0.09091  0.31818  1.0000
  Ag  Ag60      1.0  0.04545  0.13636  0.27273  1.0000
  Ag  Ag61      1.0  0.00000  0.09091  0.36364  1.0000
  Ag  Ag62      1.0  0.00000  0.13636  0.40909  1.0000
  Ag  Ag63      1.0  0.04545  0.09091  0.40909  1.0000
  Ag  Ag64      1.0  0.04545  0.13636  0.36364  1.0000
  Ag  Ag65      1.0  0.00000  0.09091  0.45455  1.0000
  Ag  Ag66      1.0  0.00000  0.13636  0.50000  1.0000
  Ag  Ag67      1.0  0.04545  0.09091  0.50000  1.0000
  Ag  Ag68      1.0  0.04545  0.13636  0.45455  1.0000
  Ag  Ag69      1.0  0.00000  0.09091  0.54545  1.0000
  Ag  Ag70      1.0  0.00000  0.13636  0.59091  1.0000
  Ag  Ag71      1.0  0.04545  0.09091  0.59091  1.0000
  Ag  Ag72      1.0  0.04545  0.13636  0.54545  1.0000
  Ag  Ag73      1.0  0.00000  0.09091  0.63636  1.0000
  Ag  Ag74      1.0  0.00000  0.13636  0.68182  1.0000
  Ag  Ag75      1.0  0.04545  0.09091  0.68182  1.0000
  Ag  Ag76      1.0  0.04545  0.13636  0.63636  1.0000
  Ag  Ag77      1.0  0.00000  0.09091  0.72727  1.0000
  Ag  Ag78      1.0  0.00000  0.13636  0.77273  1.0000
  Ag  Ag79      1.0  0.04545  0.09091  0.77273  1.0000
  Ag  Ag80      1.0  0.04545  0.13636  0.72727  1.0000
  Ag  Ag81      1.0  0.00000  0.09091  0.81818  1.0000
  Ag  Ag82      1.0  0.00000  0.13636  0.86364  1.0000
  Ag  Ag83      1.0  0.04545  0.09091  0.86364  1.0000
  Ag  Ag84      1.0  0.04545  0.13636  0.81818  1.0000
  Ag  Ag85      1.0  0.00000  0.09091  0.90909  1.0000
  Ag  Ag86      1.0  0.00000  0.13636  0.95455  1.0000
  Ag  Ag87      1.0  0.04545  0.09091  0.95455  1.0000
  Ag  Ag88      1.0  0.04545  0.13636  0.90909  1.0000
  Ag  Ag89      1.0  0.00000  0.18182  0.00000  1.0000
  Ag  Ag90      1.0  0.00000  0.22727  0.04545  1.0000
  Ag  Ag91      1.0  0.04545  0.18182  0.04545  1.0000
  Ag  Ag92      1.0  0.04545  0.22727  0.00000  1.0000
  Ag  Ag93      1.0  0.00000  0.18182  0.09091  1.0000
  Ag  Ag94      1.0  0.00000  0.22727  0.13636  1.0000
  Ag  Ag95      1.0  0.04545  0.18182  0.13636  1.0000
  Ag  Ag96      1.0  0.04545  0.22727  0.09091  1.0000
  Ag  Ag97      1.0  0.00000  0.18182  0.18182  1.0000
  Ag  Ag98      1.0  0.00000  0.22727  0.22727  1.0000
  Ag  Ag99      1.0  0.04545  0.18182  0.22727  1.0000
  Ag  Ag100     1.0  0.04545  0.22727  0.18182  1.0000
  Ag  Ag101     1.0  0.00000  0.18182  0.27273  1.0000
  Ag  Ag102     1.0  0.00000  0.22727  0.31818  1.0000
  Ag  Ag103     1.0  0.04545  0.18182  0.31818  1.0000
  Ag  Ag104     1.0  0.04545  0.22727  0.27273  1.0000
  Ag  Ag105     1.0  0.00000  0.18182  0.36364  1.0000
  Ag  Ag106     1.0  0.00000  0.22727  0.40909  1.0000
  Ag  Ag107     1.0  0.04545  0.18182  0.40909  1.0000
  Ag  Ag108     1.0  0.04545  0.22727  0.36364  1.0000
  Ag  Ag109     1.0  0.00000  0.18182  0.45455  1.0000
  Ag  Ag110     1.0  0.00000  0.22727  0.50000  1.0000
  Ag  Ag111     1.0  0.04545  0.18182  0.50000  1.0000
  Ag  Ag112     1.0  0.04545  0.22727  0.45455  1.0000
  Ag  Ag113     1.0  0.00000  0.18182  0.54545  1.0000
  Ag  Ag114     1.0  0.00000  0.22727  0.59091  1.0000
  Ag  Ag115     1.0  0.04545  0.18182  0.59091  1.0000
  Ag  Ag116     1.0  0.04545  0.22727  0.54545  1.0000
  Ag  Ag117     1.0  0.00000  0.18182  0.63636  1.0000
  Ag  Ag118     1.0  0.00000  0.22727  0.68182  1.0000
  Ag  Ag119     1.0  0.04545  0.18182  0.68182  1.0000
  Ag  Ag120     1.0  0.04545  0.22727  0.63636  1.0000
  Ag  Ag121     1.0  0.00000  0.18182  0.72727  1.0000
  Ag  Ag122     1.0  0.00000  0.22727  0.77273  1.0000
  Ag  Ag123     1.0  0.04545  0.18182  0.77273  1.0000
  Ag  Ag124     1.0  0.04545  0.22727  0.72727  1.0000
  Ag  Ag125     1.0  0.00000  0.18182  0.81818  1.0000
  Ag  Ag126     1.0  0.00000  0.22727  0.86364  1.0000
  Ag  Ag127     1.0  0.04545  0.18182  0.86364  1.0000
  Ag  Ag128     1.0  0.04545  0.22727  0.81818  1.0000
  Ag  Ag129     1.0  0.00000  0.18182  0.90909  1.0000
  Ag  Ag130     1.0  0.00000  0.22727  0.95455  1.0000
  Ag  Ag131     1.0  0.04545  0.18182  0.95455  1.0000
  Ag  Ag132     1.0  0.04545  0.22727  0.90909  1.0000
  Ag  Ag133     1.0  0.00000  0.27273  0.00000  1.0000
  Ag  Ag134     1.0  0.00000  0.31818  0.04545  1.0000
  Ag  Ag135     1.0  0.04545  0.27273  0.04545  1.0000
  Ag  Ag136     1.0  0.04545  0.31818  0.00000  1.0000
  Ag  Ag137     1.0  0.00000  0.27273  0.09091  1.0000
  Ag  Ag138     1.0  0.00000  0.31818  0.13636  1.0000
  Ag  Ag139     1.0  0.04545  0.27273  0.13636  1.0000
  Ag  Ag140     1.0  0.04545  0.31818  0.09091  1.0000
  Ag  Ag141     1.0  0.00000  0.27273  0.18182  1.0000
  Ag  Ag142     1.0  0.00000  0.31818  0.22727  1.0000
  Ag  Ag143     1.0  0.04545  0.27273  0.22727  1.0000
  Ag  Ag144     1.0  0.04545  0.31818  0.18182  1.0000
  Ag  Ag145     1.0  0.00000  0.27273  0.27273  1.0000
  Ag  Ag146     1.0  0.00000  0.31818  0.31818  1.0000
  Ag  Ag147     1.0  0.04545  0.27273  0.31818  1.0000
  Ag  Ag148     1.0  0.04545  0.31818  0.27273  1.0000
  Ag  Ag149     1.0  0.00000  0.27273  0.36364  1.0000
  Ag  Ag150     1.0  0.00000  0.31818  0.40909  1.0000
  Ag  Ag151     1.0  0.04545  0.27273  0.40909  1.0000
  Ag  Ag152     1.0  0.04545  0.31818  0.36364  1.0000
  Ag  Ag153     1.0  0.00000  0.27273  0.45455  1.0000
  Ag  Ag154     1.0  0.00000  0.31818  0.50000  1.0000
  Ag  Ag155     1.0  0.04545  0.27273  0.50000  1.0000
  Ag  Ag156     1.0  0.04545  0.31818  0.45455  1.0000
  Ag  Ag157     1.0  0.00000  0.27273  0.54545  1.0000
  Ag  Ag158     1.0  0.00000  0.31818  0.59091  1.0000
  Ag  Ag159     1.0  0.04545  0.27273  0.59091  1.0000
  Ag  Ag160     1.0  0.04545  0.31818  0.54545  1.0000
  Ag  Ag161     1.0  0.00000  0.27273  0.63636  1.0000
  Ag  Ag162     1.0  0.00000  0.31818  0.68182  1.0000
  Ag  Ag163     1.0  0.04545  0.27273  0.68182  1.0000
  Ag  Ag164     1.0  0.04545  0.31818  0.63636  1.0000
  Ag  Ag165     1.0  0.00000  0.27273  0.72727  1.0000
  Ag  Ag166     1.0  0.00000  0.31818  0.77273  1.0000
  Ag  Ag167     1.0  0.04545  0.27273  0.77273  1.0000
  Ag  Ag168     1.0  0.04545  0.31818  0.72727  1.0000
  Ag  Ag169     1.0  0.00000  0.27273  0.81818  1.0000
  Ag  Ag170     1.0  0.00000  0.31818  0.86364  1.0000
  Ag  Ag171     1.0  0.04545  0.27273  0.86364  1.0000
  Ag  Ag172     1.0  0.04545  0.31818  0.81818  1.0000
  Ag  Ag173     1.0  0.00000  0.27273  0.90909  1.0000
  Ag  Ag174     1.0  0.00000  0.31818  0.95455  1.0000
  Ag  Ag175     1.0  0.04545  0.27273  0.95455  1.0000
  Ag  Ag176     1.0  0.04545  0.31818  0.90909  1.0000
  Ag  Ag177     1.0  0.00000  0.36364  0.00000  1.0000
  Ag  Ag178     1.0  0.00000  0.40909  0.04545  1.0000
  Ag  Ag179     1.0  0.04545  0.36364  0.04545  1.0000
  Ag  Ag180     1.0  0.04545  0.40909  0.00000  1.0000
  Ag  Ag181     1.0  0.00000  0.36364  0.09091  1.0000
  Ag  Ag182     1.0  0.00000  0.40909  0.13636  1.0000
  Ag  Ag183     1.0  0.04545  0.36364  0.13636  1.0000
  Ag  Ag184     1.0  0.04545  0.40909  0.09091  1.0000
  Ag  Ag185     1.0  0.00000  0.36364  0.18182  1.0000
  Ag  Ag186     1.0  0.00000  0.40909  0.22727  1.0000
  Ag  Ag187     1.0  0.04545  0.36364  0.22727  1.0000
  Ag  Ag188     1.0  0.04545  0.40909  0.18182  1.0000
  Ag  Ag189     1.0  0.00000  0.36364  0.27273  1.0000
  Ag  Ag190     1.0  0.00000  0.40909  0.31818  1.0000
  Ag  Ag191     1.0  0.04545  0.36364  0.31818  1.0000
  Ag  Ag192     1.0  0.04545  0.40909  0.27273  1.0000
  Ag  Ag193     1.0  0.00000  0.36364  0.36364  1.0000
  Ag  Ag194     1.0  0.00000  0.40909  0.40909  1.0000
  Ag  Ag195     1.0  0.04545  0.36364  0.40909  1.0000
  Ag  Ag196     1.0  0.04545  0.40909  0.36364  1.0000
  Ag  Ag197     1.0  0.00000  0.36364  0.45455  1.0000
  Ag  Ag198     1.0  0.00000  0.40909  0.50000  1.0000
  Ag  Ag199     1.0  0.04545  0.36364  0.50000  1.0000
  Ag  Ag200     1.0  0.04545  0.40909  0.45455  1.0000
  Ag  Ag201     1.0  0.00000  0.36364  0.54545  1.0000
  Ag  Ag202     1.0  0.00000  0.40909  0.59091  1.0000
  Ag  Ag203     1.0  0.04545  0.36364  0.59091  1.0000
  Ag  Ag204     1.0  0.04545  0.40909  0.54545  1.0000
  Ag  Ag205     1.0  0.00000  0.36364  0.63636  1.0000
  Ag  Ag206     1.0  0.00000  0.40909  0.68182  1.0000
  Ag  Ag207     1.0  0.04545  0.36364  0.68182  1.0000
  Ag  Ag208     1.0  0.04545  0.40909  0.63636  1.0000
  Ag  Ag209     1.0  0.00000  0.36364  0.72727  1.0000
  Ag  Ag210     1.0  0.00000  0.40909  0.77273  1.0000
  Ag  Ag211     1.0  0.04545  0.36364  0.77273  1.0000
  Ag  Ag212     1.0  0.04545  0.40909  0.72727  1.0000
  Ag  Ag213     1.0  0.00000  0.36364  0.81818  1.0000
  Ag  Ag214     1.0  0.00000  0.40909  0.86364  1.0000
  Ag  Ag215     1.0  0.04545  0.36364  0.86364  1.0000
  Ag  Ag216     1.0  0.04545  0.40909  0.81818  1.0000
  Ag  Ag217     1.0  0.00000  0.36364  0.90909  1.0000
  Ag  Ag218     1.0  0.00000  0.40909  0.95455  1.0000
  Ag  Ag219     1.0  0.04545  0.36364  0.95455  1.0000
  Ag  Ag220     1.0  0.04545  0.40909  0.90909  1.0000
  Ag  Ag221     1.0  0.00000  0.45455  0.00000  1.0000
  Ag  Ag222     1.0  0.00000  0.50000  0.04545  1.0000
  Ag  Ag223     1.0  0.04545  0.45455  0.04545  1.0000
  Ag  Ag224     1.0  0.04545  0.50000  0.00000  1.0000
  Ag  Ag225     1.0  0.00000  0.45455  0.09091  1.0000
  Ag  Ag226     1.0  0.00000  0.50000  0.13636  1.0000
  Ag  Ag227     1.0  0.04545  0.45455  0.13636  1.0000
  Ag  Ag228     1.0  0.04545  0.50000  0.09091  1.0000
  Ag  Ag229     1.0  0.00000  0.45455  0.18182  1.0000
  Ag  Ag230     1.0  0.00000  0.50000  0.22727  1.0000
  Ag  Ag231     1.0  0.04545  0.45455  0.22727  1.0000
  Ag  Ag232     1.0  0.04545  0.50000  0.18182  1.0000
  Ag  Ag233     1.0  0.00000  0.45455  0.27273  1.0000
  Ag  Ag234     1.0  0.00000  0.50000  0.31818  1.0000
  Ag  Ag235     1.0  0.04545  0.45455  0.31818  1.0000
  Ag  Ag236     1.0  0.04545  0.50000  0.27273  1.0000
  Ag  Ag237     1.0  0.00000  0.45455  0.36364  1.0000
  Ag  Ag238     1.0  0.00000  0.50000  0.40909  1.0000
  Ag  Ag239     1.0  0.04545  0.45455  0.40909  1.0000
  Ag  Ag240     1.0  0.04545  0.50000  0.36364  1.0000
  Ag  Ag241     1.0  0.00000  0.45455  0.45455  1.0000
  Ag  Ag242     1.0  0.00000  0.50000  0.50000  1.0000
  Ag  Ag243     1.0  0.04545  0.45455  0.50000  1.0000
  Ag  Ag244     1.0  0.04545  0.50000  0.45455  1.0000
  Ag  Ag245     1.0  0.00000  0.45455  0.54545  1.0000
  Ag  Ag246     1.0  0.00000  0.50000  0.59091  1.0000
  Ag  Ag247     1.0  0.04545  0.45455  0.59091  1.0000
  Ag  Ag248     1.0  0.04545  0.50000  0.54545  1.0000
  Ag  Ag249     1.0  0.00000  0.45455  0.63636  1.0000
  Ag  Ag250     1.0  0.00000  0.50000  0.68182  1.0000
  Ag  Ag251     1.0  0.04545  0.45455  0.68182  1.0000
  Ag  Ag252     1.0  0.04545  0.50000  0.63636  1.0000
  Ag  Ag253     1.0  0.00000  0.45455  0.72727  1.0000
  Ag  Ag254     1.0  0.00000  0.50000  0.77273  1.0000
  Ag  Ag255     1.0  0.04545  0.45455  0.77273  1.0000
  Ag  Ag256     1.0  0.04545  0.50000  0.72727  1.0000
  Ag  Ag257     1.0  0.00000  0.45455  0.81818  1.0000
  Ag  Ag258     1.0  0.00000  0.50000  0.86364  1.0000
  Ag  Ag259     1.0  0.04545  0.45455  0.86364  1.0000
  Ag  Ag260     1.0  0.04545  0.50000  0.81818  1.0000
  Ag  Ag261     1.0  0.00000  0.45455  0.90909  1.0000
  Ag  Ag262     1.0  0.00000  0.50000  0.95455  1.0000
  Ag  Ag263     1.0  0.04545  0.45455  0.95455  1.0000
  Ag  Ag264     1.0  0.04545  0.50000  0.90909  1.0000
  Ag  Ag265     1.0  0.00000  0.54545  0.00000  1.0000
  Ag  Ag266     1.0  0.00000  0.59091  0.04545  1.0000
  Ag  Ag267     1.0  0.04545  0.54545  0.04545  1.0000
  Ag  Ag268     1.0  0.04545  0.59091  0.00000  1.0000
  Ag  Ag269     1.0  0.00000  0.54545  0.09091  1.0000
  Ag  Ag270     1.0  0.00000  0.59091  0.13636  1.0000
  Ag  Ag271     1.0  0.04545  0.54545  0.13636  1.0000
  Ag  Ag272     1.0  0.04545  0.59091  0.09091  1.0000
  Ag  Ag273     1.0  0.00000  0.54545  0.18182  1.0000
  Ag  Ag274     1.0  0.00000  0.59091  0.22727  1.0000
  Ag  Ag275     1.0  0.04545  0.54545  0.22727  1.0000
  Ag  Ag276     1.0  0.04545  0.59091  0.18182  1.0000
  Ag  Ag277     1.0  0.00000  0.54545  0.27273  1.0000
  Ag  Ag278     1.0  0.00000  0.59091  0.31818  1.0000
  Ag  Ag279     1.0  0.04545  0.54545  0.31818  1.0000
  Ag  Ag280     1.0  0.04545  0.59091  0.27273  1.0000
  Ag  Ag281     1.0  0.00000  0.54545  0.36364  1.0000
  Ag  Ag282     1.0  0.00000  0.59091  0.40909  1.0000
  Ag  Ag283     1.0  0.04545  0.54545  0.40909  1.0000
  Ag  Ag284     1.0  0.04545  0.59091  0.36364  1.0000
  Ag  Ag285     1.0  0.00000  0.54545  0.45455  1.0000
  Ag  Ag286     1.0  0.00000  0.59091  0.50000  1.0000
  Ag  Ag287     1.0  0.04545  0.54545  0.50000  1.0000
  Ag  Ag288     1.0  0.04545  0.59091  0.45455  1.0000
  Ag  Ag289     1.0  0.00000  0.54545  0.54545  1.0000
  Ag  Ag290     1.0  0.00000  0.59091  0.59091  1.0000
  Ag  Ag291     1.0  0.04545  0.54545  0.59091  1.0000
  Ag  Ag292     1.0  0.04545  0.59091  0.54545  1.0000
  Ag  Ag293     1.0  0.00000  0.54545  0.63636  1.0000
  Ag  Ag294     1.0  0.00000  0.59091  0.68182  1.0000
  Ag  Ag295     1.0  0.04545  0.54545  0.68182  1.0000
  Ag  Ag296     1.0  0.04545  0.59091  0.63636  1.0000
  Ag  Ag297     1.0  0.00000  0.54545  0.72727  1.0000
  Ag  Ag298     1.0  0.00000  0.59091  0.77273  1.0000
  Ag  Ag299     1.0  0.04545  0.54545  0.77273  1.0000
  Ag  Ag300     1.0  0.04545  0.59091  0.72727  1.0000
  Ag  Ag301     1.0  0.00000  0.54545  0.81818  1.0000
  Ag  Ag302     1.0  0.00000  0.59091  0.86364  1.0000
  Ag  Ag303     1.0  0.04545  0.54545  0.86364  1.0000
  Ag  Ag304     1.0  0.04545  0.59091  0.81818  1.0000
  Ag  Ag305     1.0  0.00000  0.54545  0.90909  1.0000
  Ag  Ag306     1.0  0.00000  0.59091  0.95455  1.0000
  Ag  Ag307     1.0  0.04545  0.54545  0.95455  1.0000
  Ag  Ag308     1.0  0.04545  0.59091  0.90909  1.0000
  Ag  Ag309     1.0  0.00000  0.63636  0.00000  1.0000
  Ag  Ag310     1.0  0.00000  0.68182  0.04545  1.0000
  Ag  Ag311     1.0  0.04545  0.63636  0.04545  1.0000
  Ag  Ag312     1.0  0.04545  0.68182  0.00000  1.0000
  Ag  Ag313     1.0  0.00000  0.63636  0.09091  1.0000
  Ag  Ag314     1.0  0.00000  0.68182  0.13636  1.0000
  Ag  Ag315     1.0  0.04545  0.63636  0.13636  1.0000
  Ag  Ag316     1.0  0.04545  0.68182  0.09091  1.0000
  Ag  Ag317     1.0  0.00000  0.63636  0.18182  1.0000
  Ag  Ag318     1.0  0.00000  0.68182  0.22727  1.0000
  Ag  Ag319     1.0  0.04545  0.63636  0.22727  1.0000
  Ag  Ag320     1.0  0.04545  0.68182  0.18182  1.0000
  Ag  Ag321     1.0  0.00000  0.63636  0.27273  1.0000
  Ag  Ag322     1.0  0.00000  0.68182  0.31818  1.0000
  Ag  Ag323     1.0  0.04545  0.63636  0.31818  1.0000
  Ag  Ag324     1.0  0.04545  0.68182  0.27273  1.0000
  Ag  Ag325     1.0  0.00000  0.63636  0.36364  1.0000
  Ag  Ag326     1.0  0.00000  0.68182  0.40909  1.0000
  Ag  Ag327     1.0  0.04545  0.63636  0.40909  1.0000
  Ag  Ag328     1.0  0.04545  0.68182  0.36364  1.0000
  Ag  Ag329     1.0  0.00000  0.63636  0.45455  1.0000
  Ag  Ag330     1.0  0.00000  0.68182  0.50000  1.0000
  Ag  Ag331     1.0  0.04545  0.63636  0.50000  1.0000
  Ag  Ag332     1.0  0.04545  0.68182  0.45455  1.0000
  Ag  Ag333     1.0  0.00000  0.63636  0.54545  1.0000
  Ag  Ag334     1.0  0.00000  0.68182  0.59091  1.0000
  Ag  Ag335     1.0  0.04545  0.63636  0.59091  1.0000
  Ag  Ag336     1.0  0.04545  0.68182  0.54545  1.0000
  Ag  Ag337     1.0  0.00000  0.63636  0.63636  1.0000
  Ag  Ag338     1.0  0.00000  0.68182  0.68182  1.0000
  Ag  Ag339     1.0  0.04545  0.63636  0.68182  1.0000
  Ag  Ag340     1.0  0.04545  0.68182  0.63636  1.0000
  Ag  Ag341     1.0  0.00000  0.63636  0.72727  1.0000
  Ag  Ag342     1.0  0.00000  0.68182  0.77273  1.0000
  Ag  Ag343     1.0  0.04545  0.63636  0.77273  1.0000
  Ag  Ag344     1.0  0.04545  0.68182  0.72727  1.0000
  Ag  Ag345     1.0  0.00000  0.63636  0.81818  1.0000
  Ag  Ag346     1.0  0.00000  0.68182  0.86364  1.0000
  Ag  Ag347     1.0  0.04545  0.63636  0.86364  1.0000
  Ag  Ag348     1.0  0.04545  0.68182  0.81818  1.0000
  Ag  Ag349     1.0  0.00000  0.63636  0.90909  1.0000
  Ag  Ag350     1.0  0.00000  0.68182  0.95455  1.0000
  Ag  Ag351     1.0  0.04545  0.63636  0.95455  1.0000
  Ag  Ag352     1.0  0.04545  0.68182  0.90909  1.0000
  Ag  Ag353     1.0  0.00000  0.72727  0.00000  1.0000
  Ag  Ag354     1.0  0.00000  0.77273  0.04545  1.0000
  Ag  Ag355     1.0  0.04545  0.72727  0.04545  1.0000
  Ag  Ag356     1.0  0.04545  0.77273  0.00000  1.0000
  Ag  Ag357     1.0  0.00000  0.72727  0.09091  1.0000
  Ag  Ag358     1.0  0.00000  0.77273  0.13636  1.0000
  Ag  Ag359     1.0  0.04545  0.72727  0.13636  1.0000
  Ag  Ag360     1.0  0.04545  0.77273  0.09091  1.0000
  Ag  Ag361     1.0  0.00000  0.72727  0.18182  1.0000
  Ag  Ag362     1.0  0.00000  0.77273  0.22727  1.0000
  Ag  Ag363     1.0  0.04545  0.72727  0.22727  1.0000
  Ag  Ag364     1.0  0.04545  0.77273  0.18182  1.0000
  Ag  Ag365     1.0  0.00000  0.72727  0.27273  1.0000
  Ag  Ag366     1.0  0.00000  0.77273  0.31818  1.0000
  Ag  Ag367     1.0  0.04545  0.72727  0.31818  1.0000
  Ag  Ag368     1.0  0.04545  0.77273  0.27273  1.0000
  Ag  Ag369     1.0  0.00000  0.72727  0.36364  1.0000
  Ag  Ag370     1.0  0.00000  0.77273  0.40909  1.0000
  Ag  Ag371     1.0  0.04545  0.72727  0.40909  1.0000
  Ag  Ag372     1.0  0.04545  0.77273  0.36364  1.0000
  Ag  Ag373     1.0  0.00000  0.72727  0.45455  1.0000
  Ag  Ag374     1.0  0.00000  0.77273  0.50000  1.0000
  Ag  Ag375     1.0  0.04545  0.72727  0.50000  1.0000
  Ag  Ag376     1.0  0.04545  0.77273  0.45455  1.0000
  Ag  Ag377     1.0  0.00000  0.72727  0.54545  1.0000
  Ag  Ag378     1.0  0.00000  0.77273  0.59091  1.0000
  Ag  Ag379     1.0  0.04545  0.72727  0.59091  1.0000
  Ag  Ag380     1.0  0.04545  0.77273  0.54545  1.0000
  Ag  Ag381     1.0  0.00000  0.72727  0.63636  1.0000
  Ag  Ag382     1.0  0.00000  0.77273  0.68182  1.0000
  Ag  Ag383     1.0  0.04545  0.72727  0.68182  1.0000
  Ag  Ag384     1.0  0.04545  0.77273  0.63636  1.0000
  Ag  Ag385     1.0  0.00000  0.72727  0.72727  1.0000
  Ag  Ag386     1.0  0.00000  0.77273  0.77273  1.0000
  Ag  Ag387     1.0  0.04545  0.72727  0.77273  1.0000
  Ag  Ag388     1.0  0.04545  0.77273  0.72727  1.0000
  Ag  Ag389     1.0  0.00000  0.72727  0.81818  1.0000
  Ag  Ag390     1.0  0.00000  0.77273  0.86364  1.0000
  Ag  Ag391     1.0  0.04545  0.72727  0.86364  1.0000
  Ag  Ag392     1.0  0.04545  0.77273  0.81818  1.0000
  Ag  Ag393     1.0  0.00000  0.72727  0.90909  1.0000
  Ag  Ag394     1.0  0.00000  0.77273  0.95455  1.0000
  Ag  Ag395     1.0  0.04545  0.72727  0.95455  1.0000
  Ag  Ag396     1.0  0.04545  0.77273  0.90909  1.0000
  Ag  Ag397     1.0  0.00000  0.81818  0.00000  1.0000
  Ag  Ag398     1.0  0.00000  0.86364  0.04545  1.0000
  Ag  Ag399     1.0  0.04545  0.81818  0.04545  1.0000
  Ag  Ag400     1.0  0.04545  0.86364  0.00000  1.0000
  Ag  Ag401     1.0  0.00000  0.81818  0.09091  1.0000
  Ag  Ag402     1.0  0.00000  0.86364  0.13636  1.0000
  Ag  Ag403     1.0  0.04545  0.81818  0.13636  1.0000
  Ag  Ag404     1.0  0.04545  0.86364  0.09091  1.0000
  Ag  Ag405     1.0  0.00000  0.81818  0.18182  1.0000
  Ag  Ag406     1.0  0.00000  0.86364  0.22727  1.0000
  Ag  Ag407     1.0  0.04545  0.81818  0.22727  1.0000
  Ag  Ag408     1.0  0.04545  0.86364  0.18182  1.0000
  Ag  Ag409     1.0  0.00000  0.81818  0.27273  1.0000
  Ag  Ag410     1.0  0.00000  0.86364  0.31818  1.0000
  Ag  Ag411     1.0  0.04545  0.81818  0.31818  1.0000
  Ag  Ag412     1.0  0.04545  0.86364  0.27273  1.0000
  Ag  Ag413     1.0  0.00000  0.81818  0.36364  1.0000
  Ag  Ag414     1.0  0.00000  0.86364  0.40909  1.0000
  Ag  Ag415     1.0  0.04545  0.81818  0.40909  1.0000
  Ag  Ag416     1.0  0.04545  0.86364  0.36364  1.0000
  Ag  Ag417     1.0  0.00000  0.81818  0.45455  1.0000
  Ag  Ag418     1.0  0.00000  0.86364  0.50000  1.0000
  Ag  Ag419     1.0  0.04545  0.81818  0.50000  1.0000
  Ag  Ag420     1.0  0.04545  0.86364  0.45455  1.0000
  Ag  Ag421     1.0  0.00000  0.81818  0.54545  1.0000
  Ag  Ag422     1.0  0.00000  0.86364  0.59091  1.0000
  Ag  Ag423     1.0  0.04545  0.81818  0.59091  1.0000
  Ag  Ag424     1.0  0.04545  0.86364  0.54545  1.0000
  Ag  Ag425     1.0  0.00000  0.81818  0.63636  1.0000
  Ag  Ag426     1.0  0.00000  0.86364  0.68182  1.0000
  Ag  Ag427     1.0  0.04545  0.81818  0.68182  1.0000
  Ag  Ag428     1.0  0.04545  0.86364  0.63636  1.0000
  Ag  Ag429     1.0  0.00000  0.81818  0.72727  1.0000
  Ag  Ag430     1.0  0.00000  0.86364  0.77273  1.0000
  Ag  Ag431     1.0  0.04545  0.81818  0.77273  1.0000
  Ag  Ag432     1.0  0.04545  0.86364  0.72727  1.0000
  Ag  Ag433     1.0  0.00000  0.81818  0.81818  1.0000
  Ag  Ag434     1.0  0.00000  0.86364  0.86364  1.0000
  Ag  Ag435     1.0  0.04545  0.81818  0.86364  1.0000
  Ag  Ag436     1.0  0.04545  0.86364  0.81818  1.0000
  Ag  Ag437     1.0  0.00000  0.81818  0.90909  1.0000
  Ag  Ag438     1.0  0.00000  0.86364  0.95455  1.0000
  Ag  Ag439     1.0  0.04545  0.81818  0.95455  1.0000
  Ag  Ag440     1.0  0.04545  0.86364  0.90909  1.0000
  Ag  Ag441     1.0  0.00000  0.90909  0.00000  1.0000
  Ag  Ag442     1.0  0.00000  0.95455  0.04545  1.0000
  Ag  Ag443     1.0  0.04545  0.90909  0.04545  1.0000
  Ag  Ag444     1.0  0.04545  0.95455  0.00000  1.0000
  Ag  Ag445     1.0  0.00000  0.90909  0.09091  1.0000
  Ag  Ag446     1.0  0.00000  0.95455  0.13636  1.0000
  Ag  Ag447     1.0  0.04545  0.90909  0.13636  1.0000
  Ag  Ag448     1.0  0.04545  0.95455  0.09091  1.0000
  Ag  Ag449     1.0  0.00000  0.90909  0.18182  1.0000
  Ag  Ag450     1.0  0.00000  0.95455  0.22727  1.0000
  Ag  Ag451     1.0  0.04545  0.90909  0.22727  1.0000
  Ag  Ag452     1.0  0.04545  0.95455  0.18182  1.0000
  Ag  Ag453     1.0  0.00000  0.90909  0.27273  1.0000
  Ag  Ag454     1.0  0.00000  0.95455  0.31818  1.0000
  Ag  Ag455     1.0  0.04545  0.90909  0.31818  1.0000
  Ag  Ag456     1.0  0.04545  0.95455  0.27273  1.0000
  Ag  Ag457     1.0  0.00000  0.90909  0.36364  1.0000
  Ag  Ag458     1.0  0.00000  0.95455  0.40909  1.0000
  Ag  Ag459     1.0  0.04545  0.90909  0.40909  1.0000
  Ag  Ag460     1.0  0.04545  0.95455  0.36364  1.0000
  Ag  Ag461     1.0  0.00000  0.90909  0.45455  1.0000
  Ag  Ag462     1.0  0.00000  0.95455  0.50000  1.0000
  Ag  Ag463     1.0  0.04545  0.90909  0.50000  1.0000
  Ag  Ag464     1.0  0.04545  0.95455  0.45455  1.0000
  Ag  Ag465     1.0  0.00000  0.90909  0.54545  1.0000
  Ag  Ag466     1.0  0.00000  0.95455  0.59091  1.0000
  Ag  Ag467     1.0  0.04545  0.90909  0.59091  1.0000
  Ag  Ag468     1.0  0.04545  0.95455  0.54545  1.0000
  Ag  Ag469     1.0  0.00000  0.90909  0.63636  1.0000
  Ag  Ag470     1.0  0.00000  0.95455  0.68182  1.0000
  Ag  Ag471     1.0  0.04545  0.90909  0.68182  1.0000
  Ag  Ag472     1.0  0.04545  0.95455  0.63636  1.0000
  Ag  Ag473     1.0  0.00000  0.90909  0.72727  1.0000
  Ag  Ag474     1.0  0.00000  0.95455  0.77273  1.0000
  Ag  Ag475     1.0  0.04545  0.90909  0.77273  1.0000
  Ag  Ag476     1.0  0.04545  0.95455  0.72727  1.0000
  Ag  Ag477     1.0  0.00000  0.90909  0.81818  1.0000
  Ag  Ag478     1.0  0.00000  0.95455  0.86364  1.0000
  Ag  Ag479     1.0  0.04545  0.90909  0.86364  1.0000
  Ag  Ag480     1.0  0.04545  0.95455  0.81818  1.0000
  Ag  Ag481     1.0  0.00000  0.90909  0.90909  1.0000
  Ag  Ag482     1.0  0.00000  0.95455  0.95455  1.0000
  Ag  Ag483     1.0  0.04545  0.90909  0.95455  1.0000
  Ag  Ag484     1.0  0.04545  0.95455  0.90909  1.0000
  Ag  Ag485     1.0  0.09091  0.00000  0.00000  1.0000
  Ag  Ag486     1.0  0.09091  0.04545  0.04545  1.0000
  Ag  Ag487     1.0  0.13636  0.00000  0.04545  1.0000
  Ag  Ag488     1.0  0.13636  0.04545  0.00000  1.0000
  Ag  Ag489     1.0  0.09091  0.00000  0.09091  1.0000
  Ag  Ag490     1.0  0.09091  0.04545  0.13636  1.0000
  Ag  Ag491     1.0  0.13636  0.00000  0.13636  1.0000
  Ag  Ag492     1.0  0.13636  0.04545  0.09091  1.0000
  Ag  Ag493     1.0  0.09091  0.00000  0.18182  1.0000
  Ag  Ag494     1.0  0.09091  0.04545  0.22727  1.0000
  Ag  Ag495     1.0  0.13636  0.00000  0.22727  1.0000
  Ag  Ag496     1.0  0.13636  0.04545  0.18182  1.0000
  Ag  Ag497     1.0  0.09091  0.00000  0.27273  1.0000
  Ag  Ag498     1.0  0.09091  0.04545  0.31818  1.0000
  Ag  Ag499     1.0  0.13636  0.00000  0.31818  1.0000
  Ag  Ag500     1.0  0.13636  0.04545  0.27273  1.0000
  Ag  Ag501     1.0  0.09091  0.00000  0.36364  1.0000
  Ag  Ag502     1.0  0.09091  0.04545  0.40909  1.0000
  Ag  Ag503     1.0  0.13636  0.00000  0.40909  1.0000
  Ag  Ag504     1.0  0.13636  0.04545  0.36364  1.0000
  Ag  Ag505     1.0  0.09091  0.00000  0.45455  1.0000
  Ag  Ag506     1.0  0.09091  0.04545  0.50000  1.0000
  Ag  Ag507     1.0  0.13636  0.00000  0.50000  1.0000
  Ag  Ag508     1.0  0.13636  0.04545  0.45455  1.0000
  Ag  Ag509     1.0  0.09091  0.00000  0.54545  1.0000
  Ag  Ag510     1.0  0.09091  0.04545  0.59091  1.0000
  Ag  Ag511     1.0  0.13636  0.00000  0.59091  1.0000
  Ag  Ag512     1.0  0.13636  0.04545  0.54545  1.0000
  Ag  Ag513     1.0  0.09091  0.00000  0.63636  1.0000
  Ag  Ag514     1.0  0.09091  0.04545  0.68182  1.0000
  Ag  Ag515     1.0  0.13636  0.00000  0.68182  1.0000
  Ag  Ag516     1.0  0.13636  0.04545  0.63636  1.0000
  Ag  Ag517     1.0  0.09091  0.00000  0.72727  1.0000
  Ag  Ag518     1.0  0.09091  0.04545  0.77273  1.0000
  Ag  Ag519     1.0  0.13636  0.00000  0.77273  1.0000
  Ag  Ag520     1.0  0.13636  0.04545  0.72727  1.0000
  Ag  Ag521     1.0  0.09091  0.00000  0.81818  1.0000
  Ag  Ag522     1.0  0.09091  0.04545  0.86364  1.0000
  Ag  Ag523     1.0  0.13636  0.00000  0.86364  1.0000
  Ag  Ag524     1.0  0.13636  0.04545  0.81818  1.0000
  Ag  Ag525     1.0  0.09091  0.00000  0.90909  1.0000
  Ag  Ag526     1.0  0.09091  0.04545  0.95455  1.0000
  Ag  Ag527     1.0  0.13636  0.00000  0.95455  1.0000
  Ag  Ag528     1.0  0.13636  0.04545  0.90909  1.0000
  Ag  Ag529     1.0  0.09091  0.09091  0.00000  1.0000
  Ag  Ag530     1.0  0.09091  0.13636  0.04545  1.0000
  Ag  Ag531     1.0  0.13636  0.09091  0.04545  1.0000
  Ag  Ag532     1.0  0.13636  0.13636  0.00000  1.0000
  Ag  Ag533     1.0  0.09091  0.09091  0.09091  1.0000
  Ag  Ag534     1.0  0.09091  0.13636  0.13636  1.0000
  Ag  Ag535     1.0  0.13636  0.09091  0.13636  1.0000
  Ag  Ag536     1.0  0.13636  0.13636  0.09091  1.0000
  Ag  Ag537     1.0  0.09091  0.09091  0.18182  1.0000
  Ag  Ag538     1.0  0.09091  0.13636  0.22727  1.0000
  Ag  Ag539     1.0  0.13636  0.09091  0.22727  1.0000
  Ag  Ag540     1.0  0.13636  0.13636  0.18182  1.0000
  Ag  Ag541     1.0  0.09091  0.09091  0.27273  1.0000
  Ag  Ag542     1.0  0.09091  0.13636  0.31818  1.0000
  Ag  Ag543     1.0  0.13636  0.09091  0.31818  1.0000
  Ag  Ag544     1.0  0.13636  0.13636  0.27273  1.0000
  Ag  Ag545     1.0  0.09091  0.09091  0.36364  1.0000
  Ag  Ag546     1.0  0.09091  0.13636  0.40909  1.0000
  Ag  Ag547     1.0  0.13636  0.09091  0.40909  1.0000
  Ag  Ag548     1.0  0.13636  0.13636  0.36364  1.0000
  Ag  Ag549     1.0  0.09091  0.09091  0.45455  1.0000
  Ag  Ag550     1.0  0.09091  0.13636  0.50000  1.0000
  Ag  Ag551     1.0  0.13636  0.09091  0.50000  1.0000
  Ag  Ag552     1.0  0.13636  0.13636  0.45455  1.0000
  Ag  Ag553     1.0  0.09091  0.09091  0.54545  1.0000
  Ag  Ag554     1.0  0.09091  0.13636  0.59091  1.0000
  Ag  Ag555     1.0  0.13636  0.09091  0.59091  1.0000
  Ag  Ag556     1.0  0.13636  0.13636  0.54545  1.0000
  Ag  Ag557     1.0  0.09091  0.09091  0.63636  1.0000
  Ag  Ag558     1.0  0.09091  0.13636  0.68182  1.0000
  Ag  Ag559     1.0  0.13636  0.09091  0.68182  1.0000
  Ag  Ag560     1.0  0.13636  0.13636  0.63636  1.0000
  Ag  Ag561     1.0  0.09091  0.09091  0.72727  1.0000
  Ag  Ag562     1.0  0.09091  0.13636  0.77273  1.0000
  Ag  Ag563     1.0  0.13636  0.09091  0.77273  1.0000
  Ag  Ag564     1.0  0.13636  0.13636  0.72727  1.0000
  Ag  Ag565     1.0  0.09091  0.09091  0.81818  1.0000
  Ag  Ag566     1.0  0.09091  0.13636  0.86364  1.0000
  Ag  Ag567     1.0  0.13636  0.09091  0.86364  1.0000
  Ag  Ag568     1.0  0.13636  0.13636  0.81818  1.0000
  Ag  Ag569     1.0  0.09091  0.09091  0.90909  1.0000
  Ag  Ag570     1.0  0.09091  0.13636  0.95455  1.0000
  Ag  Ag571     1.0  0.13636  0.09091  0.95455  1.0000
  Ag  Ag572     1.0  0.13636  0.13636  0.90909  1.0000
  Ag  Ag573     1.0  0.09091  0.18182  0.00000  1.0000
  Ag  Ag574     1.0  0.09091  0.22727  0.04545  1.0000
  Ag  Ag575     1.0  0.13636  0.18182  0.04545  1.0000
  Ag  Ag576     1.0  0.13636  0.22727  0.00000  1.0000
  Ag  Ag577     1.0  0.09091  0.18182  0.09091  1.0000
  Ag  Ag578     1.0  0.09091  0.22727  0.13636  1.0000
  Ag  Ag579     1.0  0.13636  0.18182  0.13636  1.0000
  Ag  Ag580     1.0  0.13636  0.22727  0.09091  1.0000
  Ag  Ag581     1.0  0.09091  0.18182  0.18182  1.0000
  Ag  Ag582     1.0  0.09091  0.22727  0.22727  1.0000
  Ag  Ag583     1.0  0.13636  0.18182  0.22727  1.0000
  Ag  Ag584     1.0  0.13636  0.22727  0.18182  1.0000
  Ag  Ag585     1.0  0.09091  0.18182  0.27273  1.0000
  Ag  Ag586     1.0  0.09091  0.22727  0.31818  1.0000
  Ag  Ag587     1.0  0.13636  0.18182  0.31818  1.0000
  Ag  Ag588     1.0  0.13636  0.22727  0.27273  1.0000
  Ag  Ag589     1.0  0.09091  0.18182  0.36364  1.0000
  Ag  Ag590     1.0  0.09091  0.22727  0.40909  1.0000
  Ag  Ag591     1.0  0.13636  0.18182  0.40909  1.0000
  Ag  Ag592     1.0  0.13636  0.22727  0.36364  1.0000
  Ag  Ag593     1.0  0.09091  0.18182  0.45455  1.0000
  Ag  Ag594     1.0  0.09091  0.22727  0.50000  1.0000
  Ag  Ag595     1.0  0.13636  0.18182  0.50000  1.0000
  Ag  Ag596     1.0  0.13636  0.22727  0.45455  1.0000
  Ag  Ag597     1.0  0.09091  0.18182  0.54545  1.0000
  Ag  Ag598     1.0  0.09091  0.22727  0.59091  1.0000
  Ag  Ag599     1.0  0.13636  0.18182  0.59091  1.0000
  Ag  Ag600     1.0  0.13636  0.22727  0.54545  1.0000
  Ag  Ag601     1.0  0.09091  0.18182  0.63636  1.0000
  Ag  Ag602     1.0  0.09091  0.22727  0.68182  1.0000
  Ag  Ag603     1.0  0.13636  0.18182  0.68182  1.0000
  Ag  Ag604     1.0  0.13636  0.22727  0.63636  1.0000
  Ag  Ag605     1.0  0.09091  0.18182  0.72727  1.0000
  Ag  Ag606     1.0  0.09091  0.22727  0.77273  1.0000
  Ag  Ag607     1.0  0.13636  0.18182  0.77273  1.0000
  Ag  Ag608     1.0  0.13636  0.22727  0.72727  1.0000
  Ag  Ag609     1.0  0.09091  0.18182  0.81818  1.0000
  Ag  Ag610     1.0  0.09091  0.22727  0.86364  1.0000
  Ag  Ag611     1.0  0.13636  0.18182  0.86364  1.0000
  Ag  Ag612     1.0  0.13636  0.22727  0.81818  1.0000
  Ag  Ag613     1.0  0.09091  0.18182  0.90909  1.0000
  Ag  Ag614     1.0  0.09091  0.22727  0.95455  1.0000
  Ag  Ag615     1.0  0.13636  0.18182  0.95455  1.0000
  Ag  Ag616     1.0  0.13636  0.22727  0.90909  1.0000
  Ag  Ag617     1.0  0.09091  0.27273  0.00000  1.0000
  Ag  Ag618     1.0  0.09091  0.31818  0.04545  1.0000
  Ag  Ag619     1.0  0.13636  0.27273  0.04545  1.0000
  Ag  Ag620     1.0  0.13636  0.31818  0.00000  1.0000
  Ag  Ag621     1.0  0.09091  0.27273  0.09091  1.0000
  Ag  Ag622     1.0  0.09091  0.31818  0.13636  1.0000
  Ag  Ag623     1.0  0.13636  0.27273  0.13636  1.0000
  Ag  Ag624     1.0  0.13636  0.31818  0.09091  1.0000
  Ag  Ag625     1.0  0.09091  0.27273  0.18182  1.0000
  Ag  Ag626     1.0  0.09091  0.31818  0.22727  1.0000
  Ag  Ag627     1.0  0.13636  0.27273  0.22727  1.0000
  Ag  Ag628     1.0  0.13636  0.31818  0.18182  1.0000
  Ag  Ag629     1.0  0.09091  0.27273  0.27273  1.0000
  Ag  Ag630     1.0  0.09091  0.31818  0.31818  1.0000
  Ag  Ag631     1.0  0.13636  0.27273  0.31818  1.0000
  Ag  Ag632     1.0  0.13636  0.31818  0.27273  1.0000
  Ag  Ag633     1.0  0.09091  0.27273  0.36364  1.0000
  Ag  Ag634     1.0  0.09091  0.31818  0.40909  1.0000
  Ag  Ag635     1.0  0.13636  0.27273  0.40909  1.0000
  Ag  Ag636     1.0  0.13636  0.31818  0.36364  1.0000
  Ag  Ag637     1.0  0.09091  0.27273  0.45455  1.0000
  Ag  Ag638     1.0  0.09091  0.31818  0.50000  1.0000
  Ag  Ag639     1.0  0.13636  0.27273  0.50000  1.0000
  Ag  Ag640     1.0  0.13636  0.31818  0.45455  1.0000
  Ag  Ag641     1.0  0.09091  0.27273  0.54545  1.0000
  Ag  Ag642     1.0  0.09091  0.31818  0.59091  1.0000
  Ag  Ag643     1.0  0.13636  0.27273  0.59091  1.0000
  Ag  Ag644     1.0  0.13636  0.31818  0.54545  1.0000
  Ag  Ag645     1.0  0.09091  0.27273  0.63636  1.0000
  Ag  Ag646     1.0  0.09091  0.31818  0.68182  1.0000
  Ag  Ag647     1.0  0.13636  0.27273  0.68182  1.0000
  Ag  Ag648     1.0  0.13636  0.31818  0.63636  1.0000
  Ag  Ag649     1.0  0.09091  0.27273  0.72727  1.0000
  Ag  Ag650     1.0  0.09091  0.31818  0.77273  1.0000
  Ag  Ag651     1.0  0.13636  0.27273  0.77273  1.0000
  Ag  Ag652     1.0  0.13636  0.31818  0.72727  1.0000
  Ag  Ag653     1.0  0.09091  0.27273  0.81818  1.0000
  Ag  Ag654     1.0  0.09091  0.31818  0.86364  1.0000
  Ag  Ag655     1.0  0.13636  0.27273  0.86364  1.0000
  Ag  Ag656     1.0  0.13636  0.31818  0.81818  1.0000
  Ag  Ag657     1.0  0.09091  0.27273  0.90909  1.0000
  Ag  Ag658     1.0  0.09091  0.31818  0.95455  1.0000
  Ag  Ag659     1.0  0.13636  0.27273  0.95455  1.0000
  Ag  Ag660     1.0  0.13636  0.31818  0.90909  1.0000
  Ag  Ag661     1.0  0.09091  0.36364  0.00000  1.0000
  Ag  Ag662     1.0  0.09091  0.40909  0.04545  1.0000
  Ag  Ag663     1.0  0.13636  0.36364  0.04545  1.0000
  Ag  Ag664     1.0  0.13636  0.40909  0.00000  1.0000
  Ag  Ag665     1.0  0.09091  0.36364  0.09091  1.0000
  Ag  Ag666     1.0  0.09091  0.40909  0.13636  1.0000
  Ag  Ag667     1.0  0.13636  0.36364  0.13636  1.0000
  Ag  Ag668     1.0  0.13636  0.40909  0.09091  1.0000
  Ag  Ag669     1.0  0.09091  0.36364  0.18182  1.0000
  Ag  Ag670     1.0  0.09091  0.40909  0.22727  1.0000
  Ag  Ag671     1.0  0.13636  0.36364  0.22727  1.0000
  Ag  Ag672     1.0  0.13636  0.40909  0.18182  1.0000
  Ag  Ag673     1.0  0.09091  0.36364  0.27273  1.0000
  Ag  Ag674     1.0  0.09091  0.40909  0.31818  1.0000
  Ag  Ag675     1.0  0.13636  0.36364  0.31818  1.0000
  Ag  Ag676     1.0  0.13636  0.40909  0.27273  1.0000
  Ag  Ag677     1.0  0.09091  0.36364  0.36364  1.0000
  Ag  Ag678     1.0  0.09091  0.40909  0.40909  1.0000
  Ag  Ag679     1.0  0.13636  0.36364  0.40909  1.0000
  Ag  Ag680     1.0  0.13636  0.40909  0.36364  1.0000
  Ag  Ag681     1.0  0.09091  0.36364  0.45455  1.0000
  Ag  Ag682     1.0  0.09091  0.40909  0.50000  1.0000
  Ag  Ag683     1.0  0.13636  0.36364  0.50000  1.0000
  Ag  Ag684     1.0  0.13636  0.40909  0.45455  1.0000
  Ag  Ag685     1.0  0.09091  0.36364  0.54545  1.0000
  Ag  Ag686     1.0  0.09091  0.40909  0.59091  1.0000
  Ag  Ag687     1.0  0.13636  0.36364  0.59091  1.0000
  Ag  Ag688     1.0  0.13636  0.40909  0.54545  1.0000
  Ag  Ag689     1.0  0.09091  0.36364  0.63636  1.0000
  Ag  Ag690     1.0  0.09091  0.40909  0.68182  1.0000
  Ag  Ag691     1.0  0.13636  0.36364  0.68182  1.0000
  Ag  Ag692     1.0  0.13636  0.40909  0.63636  1.0000
  Ag  Ag693     1.0  0.09091  0.36364  0.72727  1.0000
  Ag  Ag694     1.0  0.09091  0.40909  0.77273  1.0000
  Ag  Ag695     1.0  0.13636  0.36364  0.77273  1.0000
  Ag  Ag696     1.0  0.13636  0.40909  0.72727  1.0000
  Ag  Ag697     1.0  0.09091  0.36364  0.81818  1.0000
  Ag  Ag698     1.0  0.09091  0.40909  0.86364  1.0000
  Ag  Ag699     1.0  0.13636  0.36364  0.86364  1.0000
  Ag  Ag700     1.0  0.13636  0.40909  0.81818  1.0000
  Ag  Ag701     1.0  0.09091  0.36364  0.90909  1.0000
  Ag  Ag702     1.0  0.09091  0.40909  0.95455  1.0000
  Ag  Ag703     1.0  0.13636  0.36364  0.95455  1.0000
  Ag  Ag704     1.0  0.13636  0.40909  0.90909  1.0000
  Ag  Ag705     1.0  0.09091  0.45455  0.00000  1.0000
  Ag  Ag706     1.0  0.09091  0.50000  0.04545  1.0000
  Ag  Ag707     1.0  0.13636  0.45455  0.04545  1.0000
  Ag  Ag708     1.0  0.13636  0.50000  0.00000  1.0000
  Ag  Ag709     1.0  0.09091  0.45455  0.09091  1.0000
  Ag  Ag710     1.0  0.09091  0.50000  0.13636  1.0000
  Ag  Ag711     1.0  0.13636  0.45455  0.13636  1.0000
  Ag  Ag712     1.0  0.13636  0.50000  0.09091  1.0000
  Ag  Ag713     1.0  0.09091  0.45455  0.18182  1.0000
  Ag  Ag714     1.0  0.09091  0.50000  0.22727  1.0000
  Ag  Ag715     1.0  0.13636  0.45455  0.22727  1.0000
  Ag  Ag716     1.0  0.13636  0.50000  0.18182  1.0000
  Ag  Ag717     1.0  0.09091  0.45455  0.27273  1.0000
  Ag  Ag718     1.0  0.09091  0.50000  0.31818  1.0000
  Ag  Ag719     1.0  0.13636  0.45455  0.31818  1.0000
  Ag  Ag720     1.0  0.13636  0.50000  0.27273  1.0000
  Ag  Ag721     1.0  0.09091  0.45455  0.36364  1.0000
  Ag  Ag722     1.0  0.09091  0.50000  0.40909  1.0000
  Ag  Ag723     1.0  0.13636  0.45455  0.40909  1.0000
  Ag  Ag724     1.0  0.13636  0.50000  0.36364  1.0000
  Ag  Ag725     1.0  0.09091  0.45455  0.45455  1.0000
  Ag  Ag726     1.0  0.09091  0.50000  0.50000  1.0000
  Ag  Ag727     1.0  0.13636  0.45455  0.50000  1.0000
  Ag  Ag728     1.0  0.13636  0.50000  0.45455  1.0000
  Ag  Ag729     1.0  0.09091  0.45455  0.54545  1.0000
  Ag  Ag730     1.0  0.09091  0.50000  0.59091  1.0000
  Ag  Ag731     1.0  0.13636  0.45455  0.59091  1.0000
  Ag  Ag732     1.0  0.13636  0.50000  0.54545  1.0000
  Ag  Ag733     1.0  0.09091  0.45455  0.63636  1.0000
  Ag  Ag734     1.0  0.09091  0.50000  0.68182  1.0000
  Ag  Ag735     1.0  0.13636  0.45455  0.68182  1.0000
  Ag  Ag736     1.0  0.13636  0.50000  0.63636  1.0000
  Ag  Ag737     1.0  0.09091  0.45455  0.72727  1.0000
  Ag  Ag738     1.0  0.09091  0.50000  0.77273  1.0000
  Ag  Ag739     1.0  0.13636  0.45455  0.77273  1.0000
  Ag  Ag740     1.0  0.13636  0.50000  0.72727  1.0000
  Ag  Ag741     1.0  0.09091  0.45455  0.81818  1.0000
  Ag  Ag742     1.0  0.09091  0.50000  0.86364  1.0000
  Ag  Ag743     1.0  0.13636  0.45455  0.86364  1.0000
  Ag  Ag744     1.0  0.13636  0.50000  0.81818  1.0000
  Ag  Ag745     1.0  0.09091  0.45455  0.90909  1.0000
  Ag  Ag746     1.0  0.09091  0.50000  0.95455  1.0000
  Ag  Ag747     1.0  0.13636  0.45455  0.95455  1.0000
  Ag  Ag748     1.0  0.13636  0.50000  0.90909  1.0000
  Ag  Ag749     1.0  0.09091  0.54545  0.00000  1.0000
  Ag  Ag750     1.0  0.09091  0.59091  0.04545  1.0000
  Ag  Ag751     1.0  0.13636  0.54545  0.04545  1.0000
  Ag  Ag752     1.0  0.13636  0.59091  0.00000  1.0000
  Ag  Ag753     1.0  0.09091  0.54545  0.09091  1.0000
  Ag  Ag754     1.0  0.09091  0.59091  0.13636  1.0000
  Ag  Ag755     1.0  0.13636  0.54545  0.13636  1.0000
  Ag  Ag756     1.0  0.13636  0.59091  0.09091  1.0000
  Ag  Ag757     1.0  0.09091  0.54545  0.18182  1.0000
  Ag  Ag758     1.0  0.09091  0.59091  0.22727  1.0000
  Ag  Ag759     1.0  0.13636  0.54545  0.22727  1.0000
  Ag  Ag760     1.0  0.13636  0.59091  0.18182  1.0000
  Ag  Ag761     1.0  0.09091  0.54545  0.27273  1.0000
  Ag  Ag762     1.0  0.09091  0.59091  0.31818  1.0000
  Ag  Ag763     1.0  0.13636  0.54545  0.31818  1.0000
  Ag  Ag764     1.0  0.13636  0.59091  0.27273  1.0000
  Ag  Ag765     1.0  0.09091  0.54545  0.36364  1.0000
  Ag  Ag766     1.0  0.09091  0.59091  0.40909  1.0000
  Ag  Ag767     1.0  0.13636  0.54545  0.40909  1.0000
  Ag  Ag768     1.0  0.13636  0.59091  0.36364  1.0000
  Ag  Ag769     1.0  0.09091  0.54545  0.45455  1.0000
  Ag  Ag770     1.0  0.09091  0.59091  0.50000  1.0000
  Ag  Ag771     1.0  0.13636  0.54545  0.50000  1.0000
  Ag  Ag772     1.0  0.13636  0.59091  0.45455  1.0000
  Ag  Ag773     1.0  0.09091  0.54545  0.54545  1.0000
  Ag  Ag774     1.0  0.09091  0.59091  0.59091  1.0000
  Ag  Ag775     1.0  0.13636  0.54545  0.59091  1.0000
  Ag  Ag776     1.0  0.13636  0.59091  0.54545  1.0000
  Ag  Ag777     1.0  0.09091  0.54545  0.63636  1.0000
  Ag  Ag778     1.0  0.09091  0.59091  0.68182  1.0000
  Ag  Ag779     1.0  0.13636  0.54545  0.68182  1.0000
  Ag  Ag780     1.0  0.13636  0.59091  0.63636  1.0000
  Ag  Ag781     1.0  0.09091  0.54545  0.72727  1.0000
  Ag  Ag782     1.0  0.09091  0.59091  0.77273  1.0000
  Ag  Ag783     1.0  0.13636  0.54545  0.77273  1.0000
  Ag  Ag784     1.0  0.13636  0.59091  0.72727  1.0000
  Ag  Ag785     1.0  0.09091  0.54545  0.81818  1.0000
  Ag  Ag786     1.0  0.09091  0.59091  0.86364  1.0000
  Ag  Ag787     1.0  0.13636  0.54545  0.86364  1.0000
  Ag  Ag788     1.0  0.13636  0.59091  0.81818  1.0000
  Ag  Ag789     1.0  0.09091  0.54545  0.90909  1.0000
  Ag  Ag790     1.0  0.09091  0.59091  0.95455  1.0000
  Ag  Ag791     1.0  0.13636  0.54545  0.95455  1.0000
  Ag  Ag792     1.0  0.13636  0.59091  0.90909  1.0000
  Ag  Ag793     1.0  0.09091  0.63636  0.00000  1.0000
  Ag  Ag794     1.0  0.09091  0.68182  0.04545  1.0000
  Ag  Ag795     1.0  0.13636  0.63636  0.04545  1.0000
  Ag  Ag796     1.0  0.13636  0.68182  0.00000  1.0000
  Ag  Ag797     1.0  0.09091  0.63636  0.09091  1.0000
  Ag  Ag798     1.0  0.09091  0.68182  0.13636  1.0000
  Ag  Ag799     1.0  0.13636  0.63636  0.13636  1.0000
  Ag  Ag800     1.0  0.13636  0.68182  0.09091  1.0000
  Ag  Ag801     1.0  0.09091  0.63636  0.18182  1.0000
  Ag  Ag802     1.0  0.09091  0.68182  0.22727  1.0000
  Ag  Ag803     1.0  0.13636  0.63636  0.22727  1.0000
  Ag  Ag804     1.0  0.13636  0.68182  0.18182  1.0000
  Ag  Ag805     1.0  0.09091  0.63636  0.27273  1.0000
  Ag  Ag806     1.0  0.09091  0.68182  0.31818  1.0000
  Ag  Ag807     1.0  0.13636  0.63636  0.31818  1.0000
  Ag  Ag808     1.0  0.13636  0.68182  0.27273  1.0000
  Ag  Ag809     1.0  0.09091  0.63636  0.36364  1.0000
  Ag  Ag810     1.0  0.09091  0.68182  0.40909  1.0000
  Ag  Ag811     1.0  0.13636  0.63636  0.40909  1.0000
  Ag  Ag812     1.0  0.13636  0.68182  0.36364  1.0000
  Ag  Ag813     1.0  0.09091  0.63636  0.45455  1.0000
  Ag  Ag814     1.0  0.09091  0.68182  0.50000  1.0000
  Ag  Ag815     1.0  0.13636  0.63636  0.50000  1.0000
  Ag  Ag816     1.0  0.13636  0.68182  0.45455  1.0000
  Ag  Ag817     1.0  0.09091  0.63636  0.54545  1.0000
  Ag  Ag818     1.0  0.09091  0.68182  0.59091  1.0000
  Ag  Ag819     1.0  0.13636  0.63636  0.59091  1.0000
  Ag  Ag820     1.0  0.13636  0.68182  0.54545  1.0000
  Ag  Ag821     1.0  0.09091  0.63636  0.63636  1.0000
  Ag  Ag822     1.0  0.09091  0.68182  0.68182  1.0000
  Ag  Ag823     1.0  0.13636  0.63636  0.68182  1.0000
  Ag  Ag824     1.0  0.13636  0.68182  0.63636  1.0000
  Ag  Ag825     1.0  0.09091  0.63636  0.72727  1.0000
  Ag  Ag826     1.0  0.09091  0.68182  0.77273  1.0000
  Ag  Ag827     1.0  0.13636  0.63636  0.77273  1.0000
  Ag  Ag828     1.0  0.13636  0.68182  0.72727  1.0000
  Ag  Ag829     1.0  0.09091  0.63636  0.81818  1.0000
  Ag  Ag830     1.0  0.09091  0.68182  0.86364  1.0000
  Ag  Ag831     1.0  0.13636  0.63636  0.86364  1.0000
  Ag  Ag832     1.0  0.13636  0.68182  0.81818  1.0000
  Ag  Ag833     1.0  0.09091  0.63636  0.90909  1.0000
  Ag  Ag834     1.0  0.09091  0.68182  0.95455  1.0000
  Ag  Ag835     1.0  0.13636  0.63636  0.95455  1.0000
  Ag  Ag836     1.0  0.13636  0.68182  0.90909  1.0000
  Ag  Ag837     1.0  0.09091  0.72727  0.00000  1.0000
  Ag  Ag838     1.0  0.09091  0.77273  0.04545  1.0000
  Ag  Ag839     1.0  0.13636  0.72727  0.04545  1.0000
  Ag  Ag840     1.0  0.13636  0.77273  0.00000  1.0000
  Ag  Ag841     1.0  0.09091  0.72727  0.09091  1.0000
  Ag  Ag842     1.0  0.09091  0.77273  0.13636  1.0000
  Ag  Ag843     1.0  0.13636  0.72727  0.13636  1.0000
  Ag  Ag844     1.0  0.13636  0.77273  0.09091  1.0000
  Ag  Ag845     1.0  0.09091  0.72727  0.18182  1.0000
  Ag  Ag846     1.0  0.09091  0.77273  0.22727  1.0000
  Ag  Ag847     1.0  0.13636  0.72727  0.22727  1.0000
  Ag  Ag848     1.0  0.13636  0.77273  0.18182  1.0000
  Ag  Ag849     1.0  0.09091  0.72727  0.27273  1.0000
  Ag  Ag850     1.0  0.09091  0.77273  0.31818  1.0000
  Ag  Ag851     1.0  0.13636  0.72727  0.31818  1.0000
  Ag  Ag852     1.0  0.13636  0.77273  0.27273  1.0000
  Ag  Ag853     1.0  0.09091  0.72727  0.36364  1.0000
  Ag  Ag854     1.0  0.09091  0.77273  0.40909  1.0000
  Ag  Ag855     1.0  0.13636  0.72727  0.40909  1.0000
  Ag  Ag856     1.0  0.13636  0.77273  0.36364  1.0000
  Ag  Ag857     1.0  0.09091  0.72727  0.45455  1.0000
  Ag  Ag858     1.0  0.09091  0.77273  0.50000  1.0000
  Ag  Ag859     1.0  0.13636  0.72727  0.50000  1.0000
  Ag  Ag860     1.0  0.13636  0.77273  0.45455  1.0000
  Ag  Ag861     1.0  0.09091  0.72727  0.54545  1.0000
  Ag  Ag862     1.0  0.09091  0.77273  0.59091  1.0000
  Ag  Ag863     1.0  0.13636  0.72727  0.59091  1.0000
  Ag  Ag864     1.0  0.13636  0.77273  0.54545  1.0000
  Ag  Ag865     1.0  0.09091  0.72727  0.63636  1.0000
  Ag  Ag866     1.0  0.09091  0.77273  0.68182  1.0000
  Ag  Ag867     1.0  0.13636  0.72727  0.68182  1.0000
  Ag  Ag868     1.0  0.13636  0.77273  0.63636  1.0000
  Ag  Ag869     1.0  0.09091  0.72727  0.72727  1.0000
  Ag  Ag870     1.0  0.09091  0.77273  0.77273  1.0000
  Ag  Ag871     1.0  0.13636  0.72727  0.77273  1.0000
  Ag  Ag872     1.0  0.13636  0.77273  0.72727  1.0000
  Ag  Ag873     1.0  0.09091  0.72727  0.81818  1.0000
  Ag  Ag874     1.0  0.09091  0.77273  0.86364  1.0000
  Ag  Ag875     1.0  0.13636  0.72727  0.86364  1.0000
  Ag  Ag876     1.0  0.13636  0.77273  0.81818  1.0000
  Ag  Ag877     1.0  0.09091  0.72727  0.90909  1.0000
  Ag  Ag878     1.0  0.09091  0.77273  0.95455  1.0000
  Ag  Ag879     1.0  0.13636  0.72727  0.95455  1.0000
  Ag  Ag880     1.0  0.13636  0.77273  0.90909  1.0000
  Ag  Ag881     1.0  0.09091  0.81818  0.00000  1.0000
  Ag  Ag882     1.0  0.09091  0.86364  0.04545  1.0000
  Ag  Ag883     1.0  0.13636  0.81818  0.04545  1.0000
  Ag  Ag884     1.0  0.13636  0.86364  0.00000  1.0000
  Ag  Ag885     1.0  0.09091  0.81818  0.09091  1.0000
  Ag  Ag886     1.0  0.09091  0.86364  0.13636  1.0000
  Ag  Ag887     1.0  0.13636  0.81818  0.13636  1.0000
  Ag  Ag888     1.0  0.13636  0.86364  0.09091  1.0000
  Ag  Ag889     1.0  0.09091  0.81818  0.18182  1.0000
  Ag  Ag890     1.0  0.09091  0.86364  0.22727  1.0000
  Ag  Ag891     1.0  0.13636  0.81818  0.22727  1.0000
  Ag  Ag892     1.0  0.13636  0.86364  0.18182  1.0000
  Ag  Ag893     1.0  0.09091  0.81818  0.27273  1.0000
  Ag  Ag894     1.0  0.09091  0.86364  0.31818  1.0000
  Ag  Ag895     1.0  0.13636  0.81818  0.31818  1.0000
  Ag  Ag896     1.0  0.13636  0.86364  0.27273  1.0000
  Ag  Ag897     1.0  0.09091  0.81818  0.36364  1.0000
  Ag  Ag898     1.0  0.09091  0.86364  0.40909  1.0000
  Ag  Ag899     1.0  0.13636  0.81818  0.40909  1.0000
  Ag  Ag900     1.0  0.13636  0.86364  0.36364  1.0000
  Ag  Ag901     1.0  0.09091  0.81818  0.45455  1.0000
  Ag  Ag902     1.0  0.09091  0.86364  0.50000  1.0000
  Ag  Ag903     1.0  0.13636  0.81818  0.50000  1.0000
  Ag  Ag904     1.0  0.13636  0.86364  0.45455  1.0000
  Ag  Ag905     1.0  0.09091  0.81818  0.54545  1.0000
  Ag  Ag906     1.0  0.09091  0.86364  0.59091  1.0000
  Ag  Ag907     1.0  0.13636  0.81818  0.59091  1.0000
  Ag  Ag908     1.0  0.13636  0.86364  0.54545  1.0000
  Ag  Ag909     1.0  0.09091  0.81818  0.63636  1.0000
  Ag  Ag910     1.0  0.09091  0.86364  0.68182  1.0000
  Ag  Ag911     1.0  0.13636  0.81818  0.68182  1.0000
  Ag  Ag912     1.0  0.13636  0.86364  0.63636  1.0000
  Ag  Ag913     1.0  0.09091  0.81818  0.72727  1.0000
  Ag  Ag914     1.0  0.09091  0.86364  0.77273  1.0000
  Ag  Ag915     1.0  0.13636  0.81818  0.77273  1.0000
  Ag  Ag916     1.0  0.13636  0.86364  0.72727  1.0000
  Ag  Ag917     1.0  0.09091  0.81818  0.81818  1.0000
  Ag  Ag918     1.0  0.09091  0.86364  0.86364  1.0000
  Ag  Ag919     1.0  0.13636  0.81818  0.86364  1.0000
  Ag  Ag920     1.0  0.13636  0.86364  0.81818  1.0000
  Ag  Ag921     1.0  0.09091  0.81818  0.90909  1.0000
  Ag  Ag922     1.0  0.09091  0.86364  0.95455  1.0000
  Ag  Ag923     1.0  0.13636  0.81818  0.95455  1.0000
  Ag  Ag924     1.0  0.13636  0.86364  0.90909  1.0000
  Ag  Ag925     1.0  0.09091  0.90909  0.00000  1.0000
  Ag  Ag926     1.0  0.09091  0.95455  0.04545  1.0000
  Ag  Ag927     1.0  0.13636  0.90909  0.04545  1.0000
  Ag  Ag928     1.0  0.13636  0.95455  0.00000  1.0000
  Ag  Ag929     1.0  0.09091  0.90909  0.09091  1.0000
  Ag  Ag930     1.0  0.09091  0.95455  0.13636  1.0000
  Ag  Ag931     1.0  0.13636  0.90909  0.13636  1.0000
  Ag  Ag932     1.0  0.13636  0.95455  0.09091  1.0000
  Ag  Ag933     1.0  0.09091  0.90909  0.18182  1.0000
  Ag  Ag934     1.0  0.09091  0.95455  0.22727  1.0000
  Ag  Ag935     1.0  0.13636  0.90909  0.22727  1.0000
  Ag  Ag936     1.0  0.13636  0.95455  0.18182  1.0000
  Ag  Ag937     1.0  0.09091  0.90909  0.27273  1.0000
  Ag  Ag938     1.0  0.09091  0.95455  0.31818  1.0000
  Ag  Ag939     1.0  0.13636  0.90909  0.31818  1.0000
  Ag  Ag940     1.0  0.13636  0.95455  0.27273  1.0000
  Ag  Ag941     1.0  0.09091  0.90909  0.36364  1.0000
  Ag  Ag942     1.0  0.09091  0.95455  0.40909  1.0000
  Ag  Ag943     1.0  0.13636  0.90909  0.40909  1.0000
  Ag  Ag944     1.0  0.13636  0.95455  0.36364  1.0000
  Ag  Ag945     1.0  0.09091  0.90909  0.45455  1.0000
  Ag  Ag946     1.0  0.09091  0.95455  0.50000  1.0000
  Ag  Ag947     1.0  0.13636  0.90909  0.50000  1.0000
  Ag  Ag948     1.0  0.13636  0.95455  0.45455  1.0000
  Ag  Ag949     1.0  0.09091  0.90909  0.54545  1.0000
  Ag  Ag950     1.0  0.09091  0.95455  0.59091  1.0000
  Ag  Ag951     1.0  0.13636  0.90909  0.59091  1.0000
  Ag  Ag952     1.0  0.13636  0.95455  0.54545  1.0000
  Ag  Ag953     1.0  0.09091  0.90909  0.63636  1.0000
  Ag  Ag954     1.0  0.09091  0.95455  0.68182  1.0000
  Ag  Ag955     1.0  0.13636  0.90909  0.68182  1.0000
  Ag  Ag956     1.0  0.13636  0.95455  0.63636  1.0000
  Ag  Ag957     1.0  0.09091  0.90909  0.72727  1.0000
  Ag  Ag958     1.0  0.09091  0.95455  0.77273  1.0000
  Ag  Ag959     1.0  0.13636  0.90909  0.77273  1.0000
  Ag  Ag960     1.0  0.13636  0.95455  0.72727  1.0000
  Ag  Ag961     1.0  0.09091  0.90909  0.81818  1.0000
  Ag  Ag962     1.0  0.09091  0.95455  0.86364  1.0000
  Ag  Ag963     1.0  0.13636  0.90909  0.86364  1.0000
  Ag  Ag964     1.0  0.13636  0.95455  0.81818  1.0000
  Ag  Ag965     1.0  0.09091  0.90909  0.90909  1.0000
  Ag  Ag966     1.0  0.09091  0.95455  0.95455  1.0000
  Ag  Ag967     1.0  0.13636  0.90909  0.95455  1.0000
  Ag  Ag968     1.0  0.13636  0.95455  0.90909  1.0000
  Ag  Ag969     1.0  0.18182  0.00000  0.00000  1.0000
  Ag  Ag970     1.0  0.18182  0.04545  0.04545  1.0000
  Ag  Ag971     1.0  0.22727  0.00000  0.04545  1.0000
  Ag  Ag972     1.0  0.22727  0.04545  0.00000  1.0000
  Ag  Ag973     1.0  0.18182  0.00000  0.09091  1.0000
  Ag  Ag974     1.0  0.18182  0.04545  0.13636  1.0000
  Ag  Ag975     1.0  0.22727  0.00000  0.13636  1.0000
  Ag  Ag976     1.0  0.22727  0.04545  0.09091  1.0000
  Ag  Ag977     1.0  0.18182  0.00000  0.18182  1.0000
  Ag  Ag978     1.0  0.18182  0.04545  0.22727  1.0000
  Ag  Ag979     1.0  0.22727  0.00000  0.22727  1.0000
  Ag  Ag980     1.0  0.22727  0.04545  0.18182  1.0000
  Ag  Ag981     1.0  0.18182  0.00000  0.27273  1.0000
  Ag  Ag982     1.0  0.18182  0.04545  0.31818  1.0000
  Ag  Ag983     1.0  0.22727  0.00000  0.31818  1.0000
  Ag  Ag984     1.0  0.22727  0.04545  0.27273  1.0000
  Ag  Ag985     1.0  0.18182  0.00000  0.36364  1.0000
  Ag  Ag986     1.0  0.18182  0.04545  0.40909  1.0000
  Ag  Ag987     1.0  0.22727  0.00000  0.40909  1.0000
  Ag  Ag988     1.0  0.22727  0.04545  0.36364  1.0000
  Ag  Ag989     1.0  0.18182  0.00000  0.45455  1.0000
  Ag  Ag990     1.0  0.18182  0.04545  0.50000  1.0000
  Ag  Ag991     1.0  0.22727  0.00000  0.50000  1.0000
  Ag  Ag992     1.0  0.22727  0.04545  0.45455  1.0000
  Ag  Ag993     1.0  0.18182  0.00000  0.54545  1.0000
  Ag  Ag994     1.0  0.18182  0.04545  0.59091  1.0000
  Ag  Ag995     1.0  0.22727  0.00000  0.59091  1.0000
  Ag  Ag996     1.0  0.22727  0.04545  0.54545  1.0000
  Ag  Ag997     1.0  0.18182  0.00000  0.63636  1.0000
  Ag  Ag998     1.0  0.18182  0.04545  0.68182  1.0000
  Ag  Ag999     1.0  0.22727  0.00000  0.68182  1.0000
  Ag  Ag1000    1.0  0.22727  0.04545  0.63636  1.0000
  Ag  Ag1001    1.0  0.18182  0.00000  0.72727  1.0000
  Ag  Ag1002    1.0  0.18182  0.04545  0.77273  1.0000
  Ag  Ag1003    1.0  0.22727  0.00000  0.77273  1.0000
  Ag  Ag1004    1.0  0.22727  0.04545  0.72727  1.0000
  Ag  Ag1005    1.0  0.18182  0.00000  0.81818  1.0000
  Ag  Ag1006    1.0  0.18182  0.04545  0.86364  1.0000
  Ag  Ag1007    1.0  0.22727  0.00000  0.86364  1.0000
  Ag  Ag1008    1.0  0.22727  0.04545  0.81818  1.0000
  Ag  Ag1009    1.0  0.18182  0.00000  0.90909  1.0000
  Ag  Ag1010    1.0  0.18182  0.04545  0.95455  1.0000
  Ag  Ag1011    1.0  0.22727  0.00000  0.95455  1.0000
  Ag  Ag1012    1.0  0.22727  0.04545  0.90909  1.0000
  Ag  Ag1013    1.0  0.18182  0.09091  0.00000  1.0000
  Ag  Ag1014    1.0  0.18182  0.13636  0.04545  1.0000
  Ag  Ag1015    1.0  0.22727  0.09091  0.04545  1.0000
  Ag  Ag1016    1.0  0.22727  0.13636  0.00000  1.0000
  Ag  Ag1017    1.0  0.18182  0.09091  0.09091  1.0000
  Ag  Ag1018    1.0  0.18182  0.13636  0.13636  1.0000
  Ag  Ag1019    1.0  0.22727  0.09091  0.13636  1.0000
  Ag  Ag1020    1.0  0.22727  0.13636  0.09091  1.0000
  Ag  Ag1021    1.0  0.18182  0.09091  0.18182  1.0000
  Ag  Ag1022    1.0  0.18182  0.13636  0.22727  1.0000
  Ag  Ag1023    1.0  0.22727  0.09091  0.22727  1.0000
  Ag  Ag1024    1.0  0.22727  0.13636  0.18182  1.0000
  Ag  Ag1025    1.0  0.18182  0.09091  0.27273  1.0000
  Ag  Ag1026    1.0  0.18182  0.13636  0.31818  1.0000
  Ag  Ag1027    1.0  0.22727  0.09091  0.31818  1.0000
  Ag  Ag1028    1.0  0.22727  0.13636  0.27273  1.0000
  Ag  Ag1029    1.0  0.18182  0.09091  0.36364  1.0000
  Ag  Ag1030    1.0  0.18182  0.13636  0.40909  1.0000
  Ag  Ag1031    1.0  0.22727  0.09091  0.40909  1.0000
  Ag  Ag1032    1.0  0.22727  0.13636  0.36364  1.0000
  Ag  Ag1033    1.0  0.18182  0.09091  0.45455  1.0000
  Ag  Ag1034    1.0  0.18182  0.13636  0.50000  1.0000
  Ag  Ag1035    1.0  0.22727  0.09091  0.50000  1.0000
  Ag  Ag1036    1.0  0.22727  0.13636  0.45455  1.0000
  Ag  Ag1037    1.0  0.18182  0.09091  0.54545  1.0000
  Ag  Ag1038    1.0  0.18182  0.13636  0.59091  1.0000
  Ag  Ag1039    1.0  0.22727  0.09091  0.59091  1.0000
  Ag  Ag1040    1.0  0.22727  0.13636  0.54545  1.0000
  Ag  Ag1041    1.0  0.18182  0.09091  0.63636  1.0000
  Ag  Ag1042    1.0  0.18182  0.13636  0.68182  1.0000
  Ag  Ag1043    1.0  0.22727  0.09091  0.68182  1.0000
  Ag  Ag1044    1.0  0.22727  0.13636  0.63636  1.0000
  Ag  Ag1045    1.0  0.18182  0.09091  0.72727  1.0000
  Ag  Ag1046    1.0  0.18182  0.13636  0.77273  1.0000
  Ag  Ag1047    1.0  0.22727  0.09091  0.77273  1.0000
  Ag  Ag1048    1.0  0.22727  0.13636  0.72727  1.0000
  Ag  Ag1049    1.0  0.18182  0.09091  0.81818  1.0000
  Ag  Ag1050    1.0  0.18182  0.13636  0.86364  1.0000
  Ag  Ag1051    1.0  0.22727  0.09091  0.86364  1.0000
  Ag  Ag1052    1.0  0.22727  0.13636  0.81818  1.0000
  Ag  Ag1053    1.0  0.18182  0.09091  0.90909  1.0000
  Ag  Ag1054    1.0  0.18182  0.13636  0.95455  1.0000
  Ag  Ag1055    1.0  0.22727  0.09091  0.95455  1.0000
  Ag  Ag1056    1.0  0.22727  0.13636  0.90909  1.0000
  Ag  Ag1057    1.0  0.18182  0.18182  0.00000  1.0000
  Ag  Ag1058    1.0  0.18182  0.22727  0.04545  1.0000
  Ag  Ag1059    1.0  0.22727  0.18182  0.04545  1.0000
  Ag  Ag1060    1.0  0.22727  0.22727  0.00000  1.0000
  Ag  Ag1061    1.0  0.18182  0.18182  0.09091  1.0000
  Ag  Ag1062    1.0  0.18182  0.22727  0.13636  1.0000
  Ag  Ag1063    1.0  0.22727  0.18182  0.13636  1.0000
  Ag  Ag1064    1.0  0.22727  0.22727  0.09091  1.0000
  Ag  Ag1065    1.0  0.18182  0.18182  0.18182  1.0000
  Ag  Ag1066    1.0  0.18182  0.22727  0.22727  1.0000
  Ag  Ag1067    1.0  0.22727  0.18182  0.22727  1.0000
  Ag  Ag1068    1.0  0.22727  0.22727  0.18182  1.0000
  Ag  Ag1069    1.0  0.18182  0.18182  0.27273  1.0000
  Ag  Ag1070    1.0  0.18182  0.22727  0.31818  1.0000
  Ag  Ag1071    1.0  0.22727  0.18182  0.31818  1.0000
  Ag  Ag1072    1.0  0.22727  0.22727  0.27273  1.0000
  Ag  Ag1073    1.0  0.18182  0.18182  0.36364  1.0000
  Ag  Ag1074    1.0  0.18182  0.22727  0.40909  1.0000
  Ag  Ag1075    1.0  0.22727  0.18182  0.40909  1.0000
  Ag  Ag1076    1.0  0.22727  0.22727  0.36364  1.0000
  Ag  Ag1077    1.0  0.18182  0.18182  0.45455  1.0000
  Ag  Ag1078    1.0  0.18182  0.22727  0.50000  1.0000
  Ag  Ag1079    1.0  0.22727  0.18182  0.50000  1.0000
  Ag  Ag1080    1.0  0.22727  0.22727  0.45455  1.0000
  Ag  Ag1081    1.0  0.18182  0.18182  0.54545  1.0000
  Ag  Ag1082    1.0  0.18182  0.22727  0.59091  1.0000
  Ag  Ag1083    1.0  0.22727  0.18182  0.59091  1.0000
  Ag  Ag1084    1.0  0.22727  0.22727  0.54545  1.0000
  Ag  Ag1085    1.0  0.18182  0.18182  0.63636  1.0000
  Ag  Ag1086    1.0  0.18182  0.22727  0.68182  1.0000
  Ag  Ag1087    1.0  0.22727  0.18182  0.68182  1.0000
  Ag  Ag1088    1.0  0.22727  0.22727  0.63636  1.0000
  Ag  Ag1089    1.0  0.18182  0.18182  0.72727  1.0000
  Ag  Ag1090    1.0  0.18182  0.22727  0.77273  1.0000
  Ag  Ag1091    1.0  0.22727  0.18182  0.77273  1.0000
  Ag  Ag1092    1.0  0.22727  0.22727  0.72727  1.0000
  Ag  Ag1093    1.0  0.18182  0.18182  0.81818  1.0000
  Ag  Ag1094    1.0  0.18182  0.22727  0.86364  1.0000
  Ag  Ag1095    1.0  0.22727  0.18182  0.86364  1.0000
  Ag  Ag1096    1.0  0.22727  0.22727  0.81818  1.0000
  Ag  Ag1097    1.0  0.18182  0.18182  0.90909  1.0000
  Ag  Ag1098    1.0  0.18182  0.22727  0.95455  1.0000
  Ag  Ag1099    1.0  0.22727  0.18182  0.95455  1.0000
  Ag  Ag1100    1.0  0.22727  0.22727  0.90909  1.0000
  Ag  Ag1101    1.0  0.18182  0.27273  0.00000  1.0000
  Ag  Ag1102    1.0  0.18182  0.31818  0.04545  1.0000
  Ag  Ag1103    1.0  0.22727  0.27273  0.04545  1.0000
  Ag  Ag1104    1.0  0.22727  0.31818  0.00000  1.0000
  Ag  Ag1105    1.0  0.18182  0.27273  0.09091  1.0000
  Ag  Ag1106    1.0  0.18182  0.31818  0.13636  1.0000
  Ag  Ag1107    1.0  0.22727  0.27273  0.13636  1.0000
  Ag  Ag1108    1.0  0.22727  0.31818  0.09091  1.0000
  Ag  Ag1109    1.0  0.18182  0.27273  0.18182  1.0000
  Ag  Ag1110    1.0  0.18182  0.31818  0.22727  1.0000
  Ag  Ag1111    1.0  0.22727  0.27273  0.22727  1.0000
  Ag  Ag1112    1.0  0.22727  0.31818  0.18182  1.0000
  Ag  Ag1113    1.0  0.18182  0.27273  0.27273  1.0000
  Ag  Ag1114    1.0  0.18182  0.31818  0.31818  1.0000
  Ag  Ag1115    1.0  0.22727  0.27273  0.31818  1.0000
  Ag  Ag1116    1.0  0.22727  0.31818  0.27273  1.0000
  Ag  Ag1117    1.0  0.18182  0.27273  0.36364  1.0000
  Ag  Ag1118    1.0  0.18182  0.31818  0.40909  1.0000
  Ag  Ag1119    1.0  0.22727  0.27273  0.40909  1.0000
  Ag  Ag1120    1.0  0.22727  0.31818  0.36364  1.0000
  Ag  Ag1121    1.0  0.18182  0.27273  0.45455  1.0000
  Ag  Ag1122    1.0  0.18182  0.31818  0.50000  1.0000
  Ag  Ag1123    1.0  0.22727  0.27273  0.50000  1.0000
  Ag  Ag1124    1.0  0.22727  0.31818  0.45455  1.0000
  Ag  Ag1125    1.0  0.18182  0.27273  0.54545  1.0000
  Ag  Ag1126    1.0  0.18182  0.31818  0.59091  1.0000
  Ag  Ag1127    1.0  0.22727  0.27273  0.59091  1.0000
  Ag  Ag1128    1.0  0.22727  0.31818  0.54545  1.0000
  Ag  Ag1129    1.0  0.18182  0.27273  0.63636  1.0000
  Ag  Ag1130    1.0  0.18182  0.31818  0.68182  1.0000
  Ag  Ag1131    1.0  0.22727  0.27273  0.68182  1.0000
  Ag  Ag1132    1.0  0.22727  0.31818  0.63636  1.0000
  Ag  Ag1133    1.0  0.18182  0.27273  0.72727  1.0000
  Ag  Ag1134    1.0  0.18182  0.31818  0.77273  1.0000
  Ag  Ag1135    1.0  0.22727  0.27273  0.77273  1.0000
  Ag  Ag1136    1.0  0.22727  0.31818  0.72727  1.0000
  Ag  Ag1137    1.0  0.18182  0.27273  0.81818  1.0000
  Ag  Ag1138    1.0  0.18182  0.31818  0.86364  1.0000
  Ag  Ag1139    1.0  0.22727  0.27273  0.86364  1.0000
  Ag  Ag1140    1.0  0.22727  0.31818  0.81818  1.0000
  Ag  Ag1141    1.0  0.18182  0.27273  0.90909  1.0000
  Ag  Ag1142    1.0  0.18182  0.31818  0.95455  1.0000
  Ag  Ag1143    1.0  0.22727  0.27273  0.95455  1.0000
  Ag  Ag1144    1.0  0.22727  0.31818  0.90909  1.0000
  Ag  Ag1145    1.0  0.18182  0.36364  0.00000  1.0000
  Ag  Ag1146    1.0  0.18182  0.40909  0.04545  1.0000
  Ag  Ag1147    1.0  0.22727  0.36364  0.04545  1.0000
  Ag  Ag1148    1.0  0.22727  0.40909  0.00000  1.0000
  Ag  Ag1149    1.0  0.18182  0.36364  0.09091  1.0000
  Ag  Ag1150    1.0  0.18182  0.40909  0.13636  1.0000
  Ag  Ag1151    1.0  0.22727  0.36364  0.13636  1.0000
  Ag  Ag1152    1.0  0.22727  0.40909  0.09091  1.0000
  Ag  Ag1153    1.0  0.18182  0.36364  0.18182  1.0000
  Ag  Ag1154    1.0  0.18182  0.40909  0.22727  1.0000
  Ag  Ag1155    1.0  0.22727  0.36364  0.22727  1.0000
  Ag  Ag1156    1.0  0.22727  0.40909  0.18182  1.0000
  Ag  Ag1157    1.0  0.18182  0.36364  0.27273  1.0000
  Ag  Ag1158    1.0  0.18182  0.40909  0.31818  1.0000
  Ag  Ag1159    1.0  0.22727  0.36364  0.31818  1.0000
  Ag  Ag1160    1.0  0.22727  0.40909  0.27273  1.0000
  Ag  Ag1161    1.0  0.18182  0.36364  0.36364  1.0000
  Ag  Ag1162    1.0  0.18182  0.40909  0.40909  1.0000
  Ag  Ag1163    1.0  0.22727  0.36364  0.40909  1.0000
  Ag  Ag1164    1.0  0.22727  0.40909  0.36364  1.0000
  Ag  Ag1165    1.0  0.18182  0.36364  0.45455  1.0000
  Ag  Ag1166    1.0  0.18182  0.40909  0.50000  1.0000
  Ag  Ag1167    1.0  0.22727  0.36364  0.50000  1.0000
  Ag  Ag1168    1.0  0.22727  0.40909  0.45455  1.0000
  Ag  Ag1169    1.0  0.18182  0.36364  0.54545  1.0000
  Ag  Ag1170    1.0  0.18182  0.40909  0.59091  1.0000
  Ag  Ag1171    1.0  0.22727  0.36364  0.59091  1.0000
  Ag  Ag1172    1.0  0.22727  0.40909  0.54545  1.0000
  Ag  Ag1173    1.0  0.18182  0.36364  0.63636  1.0000
  Ag  Ag1174    1.0  0.18182  0.40909  0.68182  1.0000
  Ag  Ag1175    1.0  0.22727  0.36364  0.68182  1.0000
  Ag  Ag1176    1.0  0.22727  0.40909  0.63636  1.0000
  Ag  Ag1177    1.0  0.18182  0.36364  0.72727  1.0000
  Ag  Ag1178    1.0  0.18182  0.40909  0.77273  1.0000
  Ag  Ag1179    1.0  0.22727  0.36364  0.77273  1.0000
  Ag  Ag1180    1.0  0.22727  0.40909  0.72727  1.0000
  Ag  Ag1181    1.0  0.18182  0.36364  0.81818  1.0000
  Ag  Ag1182    1.0  0.18182  0.40909  0.86364  1.0000
  Ag  Ag1183    1.0  0.22727  0.36364  0.86364  1.0000
  Ag  Ag1184    1.0  0.22727  0.40909  0.81818  1.0000
  Ag  Ag1185    1.0  0.18182  0.36364  0.90909  1.0000
  Ag  Ag1186    1.0  0.18182  0.40909  0.95455  1.0000
  Ag  Ag1187    1.0  0.22727  0.36364  0.95455  1.0000
  Ag  Ag1188    1.0  0.22727  0.40909  0.90909  1.0000
  Ag  Ag1189    1.0  0.18182  0.45455  0.00000  1.0000
  Ag  Ag1190    1.0  0.18182  0.50000  0.04545  1.0000
  Ag  Ag1191    1.0  0.22727  0.45455  0.04545  1.0000
  Ag  Ag1192    1.0  0.22727  0.50000  0.00000  1.0000
  Ag  Ag1193    1.0  0.18182  0.45455  0.09091  1.0000
  Ag  Ag1194    1.0  0.18182  0.50000  0.13636  1.0000
  Ag  Ag1195    1.0  0.22727  0.45455  0.13636  1.0000
  Ag  Ag1196    1.0  0.22727  0.50000  0.09091  1.0000
  Ag  Ag1197    1.0  0.18182  0.45455  0.18182  1.0000
  Ag  Ag1198    1.0  0.18182  0.50000  0.22727  1.0000
  Ag  Ag1199    1.0  0.22727  0.45455  0.22727  1.0000
  Ag  Ag1200    1.0  0.22727  0.50000  0.18182  1.0000
  Ag  Ag1201    1.0  0.18182  0.45455  0.27273  1.0000
  Ag  Ag1202    1.0  0.18182  0.50000  0.31818  1.0000
  Ag  Ag1203    1.0  0.22727  0.45455  0.31818  1.0000
  Ag  Ag1204    1.0  0.22727  0.50000  0.27273  1.0000
  Ag  Ag1205    1.0  0.18182  0.45455  0.36364  1.0000
  Ag  Ag1206    1.0  0.18182  0.50000  0.40909  1.0000
  Ag  Ag1207    1.0  0.22727  0.45455  0.40909  1.0000
  Ag  Ag1208    1.0  0.22727  0.50000  0.36364  1.0000
  Ag  Ag1209    1.0  0.18182  0.45455  0.45455  1.0000
  Ag  Ag1210    1.0  0.18182  0.50000  0.50000  1.0000
  Ag  Ag1211    1.0  0.22727  0.45455  0.50000  1.0000
  Ag  Ag1212    1.0  0.22727  0.50000  0.45455  1.0000
  Ag  Ag1213    1.0  0.18182  0.45455  0.54545  1.0000
  Ag  Ag1214    1.0  0.18182  0.50000  0.59091  1.0000
  Ag  Ag1215    1.0  0.22727  0.45455  0.59091  1.0000
  Ag  Ag1216    1.0  0.22727  0.50000  0.54545  1.0000
  Ag  Ag1217    1.0  0.18182  0.45455  0.63636  1.0000
  Ag  Ag1218    1.0  0.18182  0.50000  0.68182  1.0000
  Ag  Ag1219    1.0  0.22727  0.45455  0.68182  1.0000
  Ag  Ag1220    1.0  0.22727  0.50000  0.63636  1.0000
  Ag  Ag1221    1.0  0.18182  0.45455  0.72727  1.0000
  Ag  Ag1222    1.0  0.18182  0.50000  0.77273  1.0000
  Ag  Ag1223    1.0  0.22727  0.45455  0.77273  1.0000
  Ag  Ag1224    1.0  0.22727  0.50000  0.72727  1.0000
  Ag  Ag1225    1.0  0.18182  0.45455  0.81818  1.0000
  Ag  Ag1226    1.0  0.18182  0.50000  0.86364  1.0000
  Ag  Ag1227    1.0  0.22727  0.45455  0.86364  1.0000
  Ag  Ag1228    1.0  0.22727  0.50000  0.81818  1.0000
  Ag  Ag1229    1.0  0.18182  0.45455  0.90909  1.0000
  Ag  Ag1230    1.0  0.18182  0.50000  0.95455  1.0000
  Ag  Ag1231    1.0  0.22727  0.45455  0.95455  1.0000
  Ag  Ag1232    1.0  0.22727  0.50000  0.90909  1.0000
  Ag  Ag1233    1.0  0.18182  0.54545  0.00000  1.0000
  Ag  Ag1234    1.0  0.18182  0.59091  0.04545  1.0000
  Ag  Ag1235    1.0  0.22727  0.54545  0.04545  1.0000
  Ag  Ag1236    1.0  0.22727  0.59091  0.00000  1.0000
  Ag  Ag1237    1.0  0.18182  0.54545  0.09091  1.0000
  Ag  Ag1238    1.0  0.18182  0.59091  0.13636  1.0000
  Ag  Ag1239    1.0  0.22727  0.54545  0.13636  1.0000
  Ag  Ag1240    1.0  0.22727  0.59091  0.09091  1.0000
  Ag  Ag1241    1.0  0.18182  0.54545  0.18182  1.0000
  Ag  Ag1242    1.0  0.18182  0.59091  0.22727  1.0000
  Ag  Ag1243    1.0  0.22727  0.54545  0.22727  1.0000
  Ag  Ag1244    1.0  0.22727  0.59091  0.18182  1.0000
  Ag  Ag1245    1.0  0.18182  0.54545  0.27273  1.0000
  Ag  Ag1246    1.0  0.18182  0.59091  0.31818  1.0000
  Ag  Ag1247    1.0  0.22727  0.54545  0.31818  1.0000
  Ag  Ag1248    1.0  0.22727  0.59091  0.27273  1.0000
  Ag  Ag1249    1.0  0.18182  0.54545  0.36364  1.0000
  Ag  Ag1250    1.0  0.18182  0.59091  0.40909  1.0000
  Ag  Ag1251    1.0  0.22727  0.54545  0.40909  1.0000
  Ag  Ag1252    1.0  0.22727  0.59091  0.36364  1.0000
  Ag  Ag1253    1.0  0.18182  0.54545  0.45455  1.0000
  Ag  Ag1254    1.0  0.18182  0.59091  0.50000  1.0000
  Ag  Ag1255    1.0  0.22727  0.54545  0.50000  1.0000
  Ag  Ag1256    1.0  0.22727  0.59091  0.45455  1.0000
  Ag  Ag1257    1.0  0.18182  0.54545  0.54545  1.0000
  Ag  Ag1258    1.0  0.18182  0.59091  0.59091  1.0000
  Ag  Ag1259    1.0  0.22727  0.54545  0.59091  1.0000
  Ag  Ag1260    1.0  0.22727  0.59091  0.54545  1.0000
  Ag  Ag1261    1.0  0.18182  0.54545  0.63636  1.0000
  Ag  Ag1262    1.0  0.18182  0.59091  0.68182  1.0000
  Ag  Ag1263    1.0  0.22727  0.54545  0.68182  1.0000
  Ag  Ag1264    1.0  0.22727  0.59091  0.63636  1.0000
  Ag  Ag1265    1.0  0.18182  0.54545  0.72727  1.0000
  Ag  Ag1266    1.0  0.18182  0.59091  0.77273  1.0000
  Ag  Ag1267    1.0  0.22727  0.54545  0.77273  1.0000
  Ag  Ag1268    1.0  0.22727  0.59091  0.72727  1.0000
  Ag  Ag1269    1.0  0.18182  0.54545  0.81818  1.0000
  Ag  Ag1270    1.0  0.18182  0.59091  0.86364  1.0000
  Ag  Ag1271    1.0  0.22727  0.54545  0.86364  1.0000
  Ag  Ag1272    1.0  0.22727  0.59091  0.81818  1.0000
  Ag  Ag1273    1.0  0.18182  0.54545  0.90909  1.0000
  Ag  Ag1274    1.0  0.18182  0.59091  0.95455  1.0000
  Ag  Ag1275    1.0  0.22727  0.54545  0.95455  1.0000
  Ag  Ag1276    1.0  0.22727  0.59091  0.90909  1.0000
  Ag  Ag1277    1.0  0.18182  0.63636  0.00000  1.0000
  Ag  Ag1278    1.0  0.18182  0.68182  0.04545  1.0000
  Ag  Ag1279    1.0  0.22727  0.63636  0.04545  1.0000
  Ag  Ag1280    1.0  0.22727  0.68182  0.00000  1.0000
  Ag  Ag1281    1.0  0.18182  0.63636  0.09091  1.0000
  Ag  Ag1282    1.0  0.18182  0.68182  0.13636  1.0000
  Ag  Ag1283    1.0  0.22727  0.63636  0.13636  1.0000
  Ag  Ag1284    1.0  0.22727  0.68182  0.09091  1.0000
  Ag  Ag1285    1.0  0.18182  0.63636  0.18182  1.0000
  Ag  Ag1286    1.0  0.18182  0.68182  0.22727  1.0000
  Ag  Ag1287    1.0  0.22727  0.63636  0.22727  1.0000
  Ag  Ag1288    1.0  0.22727  0.68182  0.18182  1.0000
  Ag  Ag1289    1.0  0.18182  0.63636  0.27273  1.0000
  Ag  Ag1290    1.0  0.18182  0.68182  0.31818  1.0000
  Ag  Ag1291    1.0  0.22727  0.63636  0.31818  1.0000
  Ag  Ag1292    1.0  0.22727  0.68182  0.27273  1.0000
  Ag  Ag1293    1.0  0.18182  0.63636  0.36364  1.0000
  Ag  Ag1294    1.0  0.18182  0.68182  0.40909  1.0000
  Ag  Ag1295    1.0  0.22727  0.63636  0.40909  1.0000
  Ag  Ag1296    1.0  0.22727  0.68182  0.36364  1.0000
  Ag  Ag1297    1.0  0.18182  0.63636  0.45455  1.0000
  Ag  Ag1298    1.0  0.18182  0.68182  0.50000  1.0000
  Ag  Ag1299    1.0  0.22727  0.63636  0.50000  1.0000
  Ag  Ag1300    1.0  0.22727  0.68182  0.45455  1.0000
  Ag  Ag1301    1.0  0.18182  0.63636  0.54545  1.0000
  Ag  Ag1302    1.0  0.18182  0.68182  0.59091  1.0000
  Ag  Ag1303    1.0  0.22727  0.63636  0.59091  1.0000
  Ag  Ag1304    1.0  0.22727  0.68182  0.54545  1.0000
  Ag  Ag1305    1.0  0.18182  0.63636  0.63636  1.0000
  Ag  Ag1306    1.0  0.18182  0.68182  0.68182  1.0000
  Ag  Ag1307    1.0  0.22727  0.63636  0.68182  1.0000
  Ag  Ag1308    1.0  0.22727  0.68182  0.63636  1.0000
  Ag  Ag1309    1.0  0.18182  0.63636  0.72727  1.0000
  Ag  Ag1310    1.0  0.18182  0.68182  0.77273  1.0000
  Ag  Ag1311    1.0  0.22727  0.63636  0.77273  1.0000
  Ag  Ag1312    1.0  0.22727  0.68182  0.72727  1.0000
  Ag  Ag1313    1.0  0.18182  0.63636  0.81818  1.0000
  Ag  Ag1314    1.0  0.18182  0.68182  0.86364  1.0000
  Ag  Ag1315    1.0  0.22727  0.63636  0.86364  1.0000
  Ag  Ag1316    1.0  0.22727  0.68182  0.81818  1.0000
  Ag  Ag1317    1.0  0.18182  0.63636  0.90909  1.0000
  Ag  Ag1318    1.0  0.18182  0.68182  0.95455  1.0000
  Ag  Ag1319    1.0  0.22727  0.63636  0.95455  1.0000
  Ag  Ag1320    1.0  0.22727  0.68182  0.90909  1.0000
  Ag  Ag1321    1.0  0.18182  0.72727  0.00000  1.0000
  Ag  Ag1322    1.0  0.18182  0.77273  0.04545  1.0000
  Ag  Ag1323    1.0  0.22727  0.72727  0.04545  1.0000
  Ag  Ag1324    1.0  0.22727  0.77273  0.00000  1.0000
  Ag  Ag1325    1.0  0.18182  0.72727  0.09091  1.0000
  Ag  Ag1326    1.0  0.18182  0.77273  0.13636  1.0000
  Ag  Ag1327    1.0  0.22727  0.72727  0.13636  1.0000
  Ag  Ag1328    1.0  0.22727  0.77273  0.09091  1.0000
  Ag  Ag1329    1.0  0.18182  0.72727  0.18182  1.0000
  Ag  Ag1330    1.0  0.18182  0.77273  0.22727  1.0000
  Ag  Ag1331    1.0  0.22727  0.72727  0.22727  1.0000
  Ag  Ag1332    1.0  0.22727  0.77273  0.18182  1.0000
  Ag  Ag1333    1.0  0.18182  0.72727  0.27273  1.0000
  Ag  Ag1334    1.0  0.18182  0.77273  0.31818  1.0000
  Ag  Ag1335    1.0  0.22727  0.72727  0.31818  1.0000
  Ag  Ag1336    1.0  0.22727  0.77273  0.27273  1.0000
  Ag  Ag1337    1.0  0.18182  0.72727  0.36364  1.0000
  Ag  Ag1338    1.0  0.18182  0.77273  0.40909  1.0000
  Ag  Ag1339    1.0  0.22727  0.72727  0.40909  1.0000
  Ag  Ag1340    1.0  0.22727  0.77273  0.36364  1.0000
  Ag  Ag1341    1.0  0.18182  0.72727  0.45455  1.0000
  Ag  Ag1342    1.0  0.18182  0.77273  0.50000  1.0000
  Ag  Ag1343    1.0  0.22727  0.72727  0.50000  1.0000
  Ag  Ag1344    1.0  0.22727  0.77273  0.45455  1.0000
  Ag  Ag1345    1.0  0.18182  0.72727  0.54545  1.0000
  Ag  Ag1346    1.0  0.18182  0.77273  0.59091  1.0000
  Ag  Ag1347    1.0  0.22727  0.72727  0.59091  1.0000
  Ag  Ag1348    1.0  0.22727  0.77273  0.54545  1.0000
  Ag  Ag1349    1.0  0.18182  0.72727  0.63636  1.0000
  Ag  Ag1350    1.0  0.18182  0.77273  0.68182  1.0000
  Ag  Ag1351    1.0  0.22727  0.72727  0.68182  1.0000
  Ag  Ag1352    1.0  0.22727  0.77273  0.63636  1.0000
  Ag  Ag1353    1.0  0.18182  0.72727  0.72727  1.0000
  Ag  Ag1354    1.0  0.18182  0.77273  0.77273  1.0000
  Ag  Ag1355    1.0  0.22727  0.72727  0.77273  1.0000
  Ag  Ag1356    1.0  0.22727  0.77273  0.72727  1.0000
  Ag  Ag1357    1.0  0.18182  0.72727  0.81818  1.0000
  Ag  Ag1358    1.0  0.18182  0.77273  0.86364  1.0000
  Ag  Ag1359    1.0  0.22727  0.72727  0.86364  1.0000
  Ag  Ag1360    1.0  0.22727  0.77273  0.81818  1.0000
  Ag  Ag1361    1.0  0.18182  0.72727  0.90909  1.0000
  Ag  Ag1362    1.0  0.18182  0.77273  0.95455  1.0000
  Ag  Ag1363    1.0  0.22727  0.72727  0.95455  1.0000
  Ag  Ag1364    1.0  0.22727  0.77273  0.90909  1.0000
  Ag  Ag1365    1.0  0.18182  0.81818  0.00000  1.0000
  Ag  Ag1366    1.0  0.18182  0.86364  0.04545  1.0000
  Ag  Ag1367    1.0  0.22727  0.81818  0.04545  1.0000
  Ag  Ag1368    1.0  0.22727  0.86364  0.00000  1.0000
  Ag  Ag1369    1.0  0.18182  0.81818  0.09091  1.0000
  Ag  Ag1370    1.0  0.18182  0.86364  0.13636  1.0000
  Ag  Ag1371    1.0  0.22727  0.81818  0.13636  1.0000
  Ag  Ag1372    1.0  0.22727  0.86364  0.09091  1.0000
  Ag  Ag1373    1.0  0.18182  0.81818  0.18182  1.0000
  Ag  Ag1374    1.0  0.18182  0.86364  0.22727  1.0000
  Ag  Ag1375    1.0  0.22727  0.81818  0.22727  1.0000
  Ag  Ag1376    1.0  0.22727  0.86364  0.18182  1.0000
  Ag  Ag1377    1.0  0.18182  0.81818  0.27273  1.0000
  Ag  Ag1378    1.0  0.18182  0.86364  0.31818  1.0000
  Ag  Ag1379    1.0  0.22727  0.81818  0.31818  1.0000
  Ag  Ag1380    1.0  0.22727  0.86364  0.27273  1.0000
  Ag  Ag1381    1.0  0.18182  0.81818  0.36364  1.0000
  Ag  Ag1382    1.0  0.18182  0.86364  0.40909  1.0000
  Ag  Ag1383    1.0  0.22727  0.81818  0.40909  1.0000
  Ag  Ag1384    1.0  0.22727  0.86364  0.36364  1.0000
  Ag  Ag1385    1.0  0.18182  0.81818  0.45455  1.0000
  Ag  Ag1386    1.0  0.18182  0.86364  0.50000  1.0000
  Ag  Ag1387    1.0  0.22727  0.81818  0.50000  1.0000
  Ag  Ag1388    1.0  0.22727  0.86364  0.45455  1.0000
  Ag  Ag1389    1.0  0.18182  0.81818  0.54545  1.0000
  Ag  Ag1390    1.0  0.18182  0.86364  0.59091  1.0000
  Ag  Ag1391    1.0  0.22727  0.81818  0.59091  1.0000
  Ag  Ag1392    1.0  0.22727  0.86364  0.54545  1.0000
  Ag  Ag1393    1.0  0.18182  0.81818  0.63636  1.0000
  Ag  Ag1394    1.0  0.18182  0.86364  0.68182  1.0000
  Ag  Ag1395    1.0  0.22727  0.81818  0.68182  1.0000
  Ag  Ag1396    1.0  0.22727  0.86364  0.63636  1.0000
  Ag  Ag1397    1.0  0.18182  0.81818  0.72727  1.0000
  Ag  Ag1398    1.0  0.18182  0.86364  0.77273  1.0000
  Ag  Ag1399    1.0  0.22727  0.81818  0.77273  1.0000
  Ag  Ag1400    1.0  0.22727  0.86364  0.72727  1.0000
  Ag  Ag1401    1.0  0.18182  0.81818  0.81818  1.0000
  Ag  Ag1402    1.0  0.18182  0.86364  0.86364  1.0000
  Ag  Ag1403    1.0  0.22727  0.81818  0.86364  1.0000
  Ag  Ag1404    1.0  0.22727  0.86364  0.81818  1.0000
  Ag  Ag1405    1.0  0.18182  0.81818  0.90909  1.0000
  Ag  Ag1406    1.0  0.18182  0.86364  0.95455  1.0000
  Ag  Ag1407    1.0  0.22727  0.81818  0.95455  1.0000
  Ag  Ag1408    1.0  0.22727  0.86364  0.90909  1.0000
  Ag  Ag1409    1.0  0.18182  0.90909  0.00000  1.0000
  Ag  Ag1410    1.0  0.18182  0.95455  0.04545  1.0000
  Ag  Ag1411    1.0  0.22727  0.90909  0.04545  1.0000
  Ag  Ag1412    1.0  0.22727  0.95455  0.00000  1.0000
  Ag  Ag1413    1.0  0.18182  0.90909  0.09091  1.0000
  Ag  Ag1414    1.0  0.18182  0.95455  0.13636  1.0000
  Ag  Ag1415    1.0  0.22727  0.90909  0.13636  1.0000
  Ag  Ag1416    1.0  0.22727  0.95455  0.09091  1.0000
  Ag  Ag1417    1.0  0.18182  0.90909  0.18182  1.0000
  Ag  Ag1418    1.0  0.18182  0.95455  0.22727  1.0000
  Ag  Ag1419    1.0  0.22727  0.90909  0.22727  1.0000
  Ag  Ag1420    1.0  0.22727  0.95455  0.18182  1.0000
  Ag  Ag1421    1.0  0.18182  0.90909  0.27273  1.0000
  Ag  Ag1422    1.0  0.18182  0.95455  0.31818  1.0000
  Ag  Ag1423    1.0  0.22727  0.90909  0.31818  1.0000
  Ag  Ag1424    1.0  0.22727  0.95455  0.27273  1.0000
  Ag  Ag1425    1.0  0.18182  0.90909  0.36364  1.0000
  Ag  Ag1426    1.0  0.18182  0.95455  0.40909  1.0000
  Ag  Ag1427    1.0  0.22727  0.90909  0.40909  1.0000
  Ag  Ag1428    1.0  0.22727  0.95455  0.36364  1.0000
  Ag  Ag1429    1.0  0.18182  0.90909  0.45455  1.0000
  Ag  Ag1430    1.0  0.18182  0.95455  0.50000  1.0000
  Ag  Ag1431    1.0  0.22727  0.90909  0.50000  1.0000
  Ag  Ag1432    1.0  0.22727  0.95455  0.45455  1.0000
  Ag  Ag1433    1.0  0.18182  0.90909  0.54545  1.0000
  Ag  Ag1434    1.0  0.18182  0.95455  0.59091  1.0000
  Ag  Ag1435    1.0  0.22727  0.90909  0.59091  1.0000
  Ag  Ag1436    1.0  0.22727  0.95455  0.54545  1.0000
  Ag  Ag1437    1.0  0.18182  0.90909  0.63636  1.0000
  Ag  Ag1438    1.0  0.18182  0.95455  0.68182  1.0000
  Ag  Ag1439    1.0  0.22727  0.90909  0.68182  1.0000
  Ag  Ag1440    1.0  0.22727  0.95455  0.63636  1.0000
  Ag  Ag1441    1.0  0.18182  0.90909  0.72727  1.0000
  Ag  Ag1442    1.0  0.18182  0.95455  0.77273  1.0000
  Ag  Ag1443    1.0  0.22727  0.90909  0.77273  1.0000
  Ag  Ag1444    1.0  0.22727  0.95455  0.72727  1.0000
  Ag  Ag1445    1.0  0.18182  0.90909  0.81818  1.0000
  Ag  Ag1446    1.0  0.18182  0.95455  0.86364  1.0000
  Ag  Ag1447    1.0  0.22727  0.90909  0.86364  1.0000
  Ag  Ag1448    1.0  0.22727  0.95455  0.81818  1.0000
  Ag  Ag1449    1.0  0.18182  0.90909  0.90909  1.0000
  Ag  Ag1450    1.0  0.18182  0.95455  0.95455  1.0000
  Ag  Ag1451    1.0  0.22727  0.90909  0.95455  1.0000
  Ag  Ag1452    1.0  0.22727  0.95455  0.90909  1.0000
  Ag  Ag1453    1.0  0.27273  0.00000  0.00000  1.0000
  Ag  Ag1454    1.0  0.27273  0.04545  0.04545  1.0000
  Ag  Ag1455    1.0  0.31818  0.00000  0.04545  1.0000
  Ag  Ag1456    1.0  0.31818  0.04545  0.00000  1.0000
  Ag  Ag1457    1.0  0.27273  0.00000  0.09091  1.0000
  Ag  Ag1458    1.0  0.27273  0.04545  0.13636  1.0000
  Ag  Ag1459    1.0  0.31818  0.00000  0.13636  1.0000
  Ag  Ag1460    1.0  0.31818  0.04545  0.09091  1.0000
  Ag  Ag1461    1.0  0.27273  0.00000  0.18182  1.0000
  Ag  Ag1462    1.0  0.27273  0.04545  0.22727  1.0000
  Ag  Ag1463    1.0  0.31818  0.00000  0.22727  1.0000
  Ag  Ag1464    1.0  0.31818  0.04545  0.18182  1.0000
  Ag  Ag1465    1.0  0.27273  0.00000  0.27273  1.0000
  Ag  Ag1466    1.0  0.27273  0.04545  0.31818  1.0000
  Ag  Ag1467    1.0  0.31818  0.00000  0.31818  1.0000
  Ag  Ag1468    1.0  0.31818  0.04545  0.27273  1.0000
  Ag  Ag1469    1.0  0.27273  0.00000  0.36364  1.0000
  Ag  Ag1470    1.0  0.27273  0.04545  0.40909  1.0000
  Ag  Ag1471    1.0  0.31818  0.00000  0.40909  1.0000
  Ag  Ag1472    1.0  0.31818  0.04545  0.36364  1.0000
  Ag  Ag1473    1.0  0.27273  0.00000  0.45455  1.0000
  Ag  Ag1474    1.0  0.27273  0.04545  0.50000  1.0000
  Ag  Ag1475    1.0  0.31818  0.00000  0.50000  1.0000
  Ag  Ag1476    1.0  0.31818  0.04545  0.45455  1.0000
  Ag  Ag1477    1.0  0.27273  0.00000  0.54545  1.0000
  Ag  Ag1478    1.0  0.27273  0.04545  0.59091  1.0000
  Ag  Ag1479    1.0  0.31818  0.00000  0.59091  1.0000
  Ag  Ag1480    1.0  0.31818  0.04545  0.54545  1.0000
  Ag  Ag1481    1.0  0.27273  0.00000  0.63636  1.0000
  Ag  Ag1482    1.0  0.27273  0.04545  0.68182  1.0000
  Ag  Ag1483    1.0  0.31818  0.00000  0.68182  1.0000
  Ag  Ag1484    1.0  0.31818  0.04545  0.63636  1.0000
  Ag  Ag1485    1.0  0.27273  0.00000  0.72727  1.0000
  Ag  Ag1486    1.0  0.27273  0.04545  0.77273  1.0000
  Ag  Ag1487    1.0  0.31818  0.00000  0.77273  1.0000
  Ag  Ag1488    1.0  0.31818  0.04545  0.72727  1.0000
  Ag  Ag1489    1.0  0.27273  0.00000  0.81818  1.0000
  Ag  Ag1490    1.0  0.27273  0.04545  0.86364  1.0000
  Ag  Ag1491    1.0  0.31818  0.00000  0.86364  1.0000
  Ag  Ag1492    1.0  0.31818  0.04545  0.81818  1.0000
  Ag  Ag1493    1.0  0.27273  0.00000  0.90909  1.0000
  Ag  Ag1494    1.0  0.27273  0.04545  0.95455  1.0000
  Ag  Ag1495    1.0  0.31818  0.00000  0.95455  1.0000
  Ag  Ag1496    1.0  0.31818  0.04545  0.90909  1.0000
  Ag  Ag1497    1.0  0.27273  0.09091  0.00000  1.0000
  Ag  Ag1498    1.0  0.27273  0.13636  0.04545  1.0000
  Ag  Ag1499    1.0  0.31818  0.09091  0.04545  1.0000
  Ag  Ag1500    1.0  0.31818  0.13636  0.00000  1.0000
  Ag  Ag1501    1.0  0.27273  0.09091  0.09091  1.0000
  Ag  Ag1502    1.0  0.27273  0.13636  0.13636  1.0000
  Ag  Ag1503    1.0  0.31818  0.09091  0.13636  1.0000
  Ag  Ag1504    1.0  0.31818  0.13636  0.09091  1.0000
  Ag  Ag1505    1.0  0.27273  0.09091  0.18182  1.0000
  Ag  Ag1506    1.0  0.27273  0.13636  0.22727  1.0000
  Ag  Ag1507    1.0  0.31818  0.09091  0.22727  1.0000
  Ag  Ag1508    1.0  0.31818  0.13636  0.18182  1.0000
  Ag  Ag1509    1.0  0.27273  0.09091  0.27273  1.0000
  Ag  Ag1510    1.0  0.27273  0.13636  0.31818  1.0000
  Ag  Ag1511    1.0  0.31818  0.09091  0.31818  1.0000
  Ag  Ag1512    1.0  0.31818  0.13636  0.27273  1.0000
  Ag  Ag1513    1.0  0.27273  0.09091  0.36364  1.0000
  Ag  Ag1514    1.0  0.27273  0.13636  0.40909  1.0000
  Ag  Ag1515    1.0  0.31818  0.09091  0.40909  1.0000
  Ag  Ag1516    1.0  0.31818  0.13636  0.36364  1.0000
  Ag  Ag1517    1.0  0.27273  0.09091  0.45455  1.0000
  Ag  Ag1518    1.0  0.27273  0.13636  0.50000  1.0000
  Ag  Ag1519    1.0  0.31818  0.09091  0.50000  1.0000
  Ag  Ag1520    1.0  0.31818  0.13636  0.45455  1.0000
  Ag  Ag1521    1.0  0.27273  0.09091  0.54545  1.0000
  Ag  Ag1522    1.0  0.27273  0.13636  0.59091  1.0000
  Ag  Ag1523    1.0  0.31818  0.09091  0.59091  1.0000
  Ag  Ag1524    1.0  0.31818  0.13636  0.54545  1.0000
  Ag  Ag1525    1.0  0.27273  0.09091  0.63636  1.0000
  Ag  Ag1526    1.0  0.27273  0.13636  0.68182  1.0000
  Ag  Ag1527    1.0  0.31818  0.09091  0.68182  1.0000
  Ag  Ag1528    1.0  0.31818  0.13636  0.63636  1.0000
  Ag  Ag1529    1.0  0.27273  0.09091  0.72727  1.0000
  Ag  Ag1530    1.0  0.27273  0.13636  0.77273  1.0000
  Ag  Ag1531    1.0  0.31818  0.09091  0.77273  1.0000
  Ag  Ag1532    1.0  0.31818  0.13636  0.72727  1.0000
  Ag  Ag1533    1.0  0.27273  0.09091  0.81818  1.0000
  Ag  Ag1534    1.0  0.27273  0.13636  0.86364  1.0000
  Ag  Ag1535    1.0  0.31818  0.09091  0.86364  1.0000
  Ag  Ag1536    1.0  0.31818  0.13636  0.81818  1.0000
  Ag  Ag1537    1.0  0.27273  0.09091  0.90909  1.0000
  Ag  Ag1538    1.0  0.27273  0.13636  0.95455  1.0000
  Ag  Ag1539    1.0  0.31818  0.09091  0.95455  1.0000
  Ag  Ag1540    1.0  0.31818  0.13636  0.90909  1.0000
  Ag  Ag1541    1.0  0.27273  0.18182  0.00000  1.0000
  Ag  Ag1542    1.0  0.27273  0.22727  0.04545  1.0000
  Ag  Ag1543    1.0  0.31818  0.18182  0.04545  1.0000
  Ag  Ag1544    1.0  0.31818  0.22727  0.00000  1.0000
  Ag  Ag1545    1.0  0.27273  0.18182  0.09091  1.0000
  Ag  Ag1546    1.0  0.27273  0.22727  0.13636  1.0000
  Ag  Ag1547    1.0  0.31818  0.18182  0.13636  1.0000
  Ag  Ag1548    1.0  0.31818  0.22727  0.09091  1.0000
  Ag  Ag1549    1.0  0.27273  0.18182  0.18182  1.0000
  Ag  Ag1550    1.0  0.27273  0.22727  0.22727  1.0000
  Ag  Ag1551    1.0  0.31818  0.18182  0.22727  1.0000
  Ag  Ag1552    1.0  0.31818  0.22727  0.18182  1.0000
  Ag  Ag1553    1.0  0.27273  0.18182  0.27273  1.0000
  Ag  Ag1554    1.0  0.27273  0.22727  0.31818  1.0000
  Ag  Ag1555    1.0  0.31818  0.18182  0.31818  1.0000
  Ag  Ag1556    1.0  0.31818  0.22727  0.27273  1.0000
  Ag  Ag1557    1.0  0.27273  0.18182  0.36364  1.0000
  Ag  Ag1558    1.0  0.27273  0.22727  0.40909  1.0000
  Ag  Ag1559    1.0  0.31818  0.18182  0.40909  1.0000
  Ag  Ag1560    1.0  0.31818  0.22727  0.36364  1.0000
  Ag  Ag1561    1.0  0.27273  0.18182  0.45455  1.0000
  Ag  Ag1562    1.0  0.27273  0.22727  0.50000  1.0000
  Ag  Ag1563    1.0  0.31818  0.18182  0.50000  1.0000
  Ag  Ag1564    1.0  0.31818  0.22727  0.45455  1.0000
  Ag  Ag1565    1.0  0.27273  0.18182  0.54545  1.0000
  Ag  Ag1566    1.0  0.27273  0.22727  0.59091  1.0000
  Ag  Ag1567    1.0  0.31818  0.18182  0.59091  1.0000
  Ag  Ag1568    1.0  0.31818  0.22727  0.54545  1.0000
  Ag  Ag1569    1.0  0.27273  0.18182  0.63636  1.0000
  Ag  Ag1570    1.0  0.27273  0.22727  0.68182  1.0000
  Ag  Ag1571    1.0  0.31818  0.18182  0.68182  1.0000
  Ag  Ag1572    1.0  0.31818  0.22727  0.63636  1.0000
  Ag  Ag1573    1.0  0.27273  0.18182  0.72727  1.0000
  Ag  Ag1574    1.0  0.27273  0.22727  0.77273  1.0000
  Ag  Ag1575    1.0  0.31818  0.18182  0.77273  1.0000
  Ag  Ag1576    1.0  0.31818  0.22727  0.72727  1.0000
  Ag  Ag1577    1.0  0.27273  0.18182  0.81818  1.0000
  Ag  Ag1578    1.0  0.27273  0.22727  0.86364  1.0000
  Ag  Ag1579    1.0  0.31818  0.18182  0.86364  1.0000
  Ag  Ag1580    1.0  0.31818  0.22727  0.81818  1.0000
  Ag  Ag1581    1.0  0.27273  0.18182  0.90909  1.0000
  Ag  Ag1582    1.0  0.27273  0.22727  0.95455  1.0000
  Ag  Ag1583    1.0  0.31818  0.18182  0.95455  1.0000
  Ag  Ag1584    1.0  0.31818  0.22727  0.90909  1.0000
  Ag  Ag1585    1.0  0.27273  0.27273  0.00000  1.0000
  Ag  Ag1586    1.0  0.27273  0.31818  0.04545  1.0000
  Ag  Ag1587    1.0  0.31818  0.27273  0.04545  1.0000
  Ag  Ag1588    1.0  0.31818  0.31818  0.00000  1.0000
  Ag  Ag1589    1.0  0.27273  0.27273  0.09091  1.0000
  Ag  Ag1590    1.0  0.27273  0.31818  0.13636  1.0000
  Ag  Ag1591    1.0  0.31818  0.27273  0.13636  1.0000
  Ag  Ag1592    1.0  0.31818  0.31818  0.09091  1.0000
  Ag  Ag1593    1.0  0.27273  0.27273  0.18182  1.0000
  Ag  Ag1594    1.0  0.27273  0.31818  0.22727  1.0000
  Ag  Ag1595    1.0  0.31818  0.27273  0.22727  1.0000
  Ag  Ag1596    1.0  0.31818  0.31818  0.18182  1.0000
  Ag  Ag1597    1.0  0.27273  0.27273  0.27273  1.0000
  Ag  Ag1598    1.0  0.27273  0.31818  0.31818  1.0000
  Ag  Ag1599    1.0  0.31818  0.27273  0.31818  1.0000
  Ag  Ag1600    1.0  0.31818  0.31818  0.27273  1.0000
  Ag  Ag1601    1.0  0.27273  0.27273  0.36364  1.0000
  Ag  Ag1602    1.0  0.27273  0.31818  0.40909  1.0000
  Ag  Ag1603    1.0  0.31818  0.27273  0.40909  1.0000
  Ag  Ag1604    1.0  0.31818  0.31818  0.36364  1.0000
  Ag  Ag1605    1.0  0.27273  0.27273  0.45455  1.0000
  Ag  Ag1606    1.0  0.27273  0.31818  0.50000  1.0000
  Ag  Ag1607    1.0  0.31818  0.27273  0.50000  1.0000
  Ag  Ag1608    1.0  0.31818  0.31818  0.45455  1.0000
  Ag  Ag1609    1.0  0.27273  0.27273  0.54545  1.0000
  Ag  Ag1610    1.0  0.27273  0.31818  0.59091  1.0000
  Ag  Ag1611    1.0  0.31818  0.27273  0.59091  1.0000
  Ag  Ag1612    1.0  0.31818  0.31818  0.54545  1.0000
  Ag  Ag1613    1.0  0.27273  0.27273  0.63636  1.0000
  Ag  Ag1614    1.0  0.27273  0.31818  0.68182  1.0000
  Ag  Ag1615    1.0  0.31818  0.27273  0.68182  1.0000
  Ag  Ag1616    1.0  0.31818  0.31818  0.63636  1.0000
  Ag  Ag1617    1.0  0.27273  0.27273  0.72727  1.0000
  Ag  Ag1618    1.0  0.27273  0.31818  0.77273  1.0000
  Ag  Ag1619    1.0  0.31818  0.27273  0.77273  1.0000
  Ag  Ag1620    1.0  0.31818  0.31818  0.72727  1.0000
  Ag  Ag1621    1.0  0.27273  0.27273  0.81818  1.0000
  Ag  Ag1622    1.0  0.27273  0.31818  0.86364  1.0000
  Ag  Ag1623    1.0  0.31818  0.27273  0.86364  1.0000
  Ag  Ag1624    1.0  0.31818  0.31818  0.81818  1.0000
  Ag  Ag1625    1.0  0.27273  0.27273  0.90909  1.0000
  Ag  Ag1626    1.0  0.27273  0.31818  0.95455  1.0000
  Ag  Ag1627    1.0  0.31818  0.27273  0.95455  1.0000
  Ag  Ag1628    1.0  0.31818  0.31818  0.90909  1.0000
  Ag  Ag1629    1.0  0.27273  0.36364  0.00000  1.0000
  Ag  Ag1630    1.0  0.27273  0.40909  0.04545  1.0000
  Ag  Ag1631    1.0  0.31818  0.36364  0.04545  1.0000
  Ag  Ag1632    1.0  0.31818  0.40909  0.00000  1.0000
  Ag  Ag1633    1.0  0.27273  0.36364  0.09091  1.0000
  Ag  Ag1634    1.0  0.27273  0.40909  0.13636  1.0000
  Ag  Ag1635    1.0  0.31818  0.36364  0.13636  1.0000
  Ag  Ag1636    1.0  0.31818  0.40909  0.09091  1.0000
  Ag  Ag1637    1.0  0.27273  0.36364  0.18182  1.0000
  Ag  Ag1638    1.0  0.27273  0.40909  0.22727  1.0000
  Ag  Ag1639    1.0  0.31818  0.36364  0.22727  1.0000
  Ag  Ag1640    1.0  0.31818  0.40909  0.18182  1.0000
  Ag  Ag1641    1.0  0.27273  0.36364  0.27273  1.0000
  Ag  Ag1642    1.0  0.27273  0.40909  0.31818  1.0000
  Ag  Ag1643    1.0  0.31818  0.36364  0.31818  1.0000
  Ag  Ag1644    1.0  0.31818  0.40909  0.27273  1.0000
  Ag  Ag1645    1.0  0.27273  0.36364  0.36364  1.0000
  Ag  Ag1646    1.0  0.27273  0.40909  0.40909  1.0000
  Ag  Ag1647    1.0  0.31818  0.36364  0.40909  1.0000
  Ag  Ag1648    1.0  0.31818  0.40909  0.36364  1.0000
  Ag  Ag1649    1.0  0.27273  0.36364  0.45455  1.0000
  Ag  Ag1650    1.0  0.27273  0.40909  0.50000  1.0000
  Ag  Ag1651    1.0  0.31818  0.36364  0.50000  1.0000
  Ag  Ag1652    1.0  0.31818  0.40909  0.45455  1.0000
  Ag  Ag1653    1.0  0.27273  0.36364  0.54545  1.0000
  Ag  Ag1654    1.0  0.27273  0.40909  0.59091  1.0000
  Ag  Ag1655    1.0  0.31818  0.36364  0.59091  1.0000
  Ag  Ag1656    1.0  0.31818  0.40909  0.54545  1.0000
  Ag  Ag1657    1.0  0.27273  0.36364  0.63636  1.0000
  Ag  Ag1658    1.0  0.27273  0.40909  0.68182  1.0000
  Ag  Ag1659    1.0  0.31818  0.36364  0.68182  1.0000
  Ag  Ag1660    1.0  0.31818  0.40909  0.63636  1.0000
  Ag  Ag1661    1.0  0.27273  0.36364  0.72727  1.0000
  Ag  Ag1662    1.0  0.27273  0.40909  0.77273  1.0000
  Ag  Ag1663    1.0  0.31818  0.36364  0.77273  1.0000
  Ag  Ag1664    1.0  0.31818  0.40909  0.72727  1.0000
  Ag  Ag1665    1.0  0.27273  0.36364  0.81818  1.0000
  Ag  Ag1666    1.0  0.27273  0.40909  0.86364  1.0000
  Ag  Ag1667    1.0  0.31818  0.36364  0.86364  1.0000
  Ag  Ag1668    1.0  0.31818  0.40909  0.81818  1.0000
  Ag  Ag1669    1.0  0.27273  0.36364  0.90909  1.0000
  Ag  Ag1670    1.0  0.27273  0.40909  0.95455  1.0000
  Ag  Ag1671    1.0  0.31818  0.36364  0.95455  1.0000
  Ag  Ag1672    1.0  0.31818  0.40909  0.90909  1.0000
  Ag  Ag1673    1.0  0.27273  0.45455  0.00000  1.0000
  Ag  Ag1674    1.0  0.27273  0.50000  0.04545  1.0000
  Ag  Ag1675    1.0  0.31818  0.45455  0.04545  1.0000
  Ag  Ag1676    1.0  0.31818  0.50000  0.00000  1.0000
  Ag  Ag1677    1.0  0.27273  0.45455  0.09091  1.0000
  Ag  Ag1678    1.0  0.27273  0.50000  0.13636  1.0000
  Ag  Ag1679    1.0  0.31818  0.45455  0.13636  1.0000
  Ag  Ag1680    1.0  0.31818  0.50000  0.09091  1.0000
  Ag  Ag1681    1.0  0.27273  0.45455  0.18182  1.0000
  Ag  Ag1682    1.0  0.27273  0.50000  0.22727  1.0000
  Ag  Ag1683    1.0  0.31818  0.45455  0.22727  1.0000
  Ag  Ag1684    1.0  0.31818  0.50000  0.18182  1.0000
  Ag  Ag1685    1.0  0.27273  0.45455  0.27273  1.0000
  Ag  Ag1686    1.0  0.27273  0.50000  0.31818  1.0000
  Ag  Ag1687    1.0  0.31818  0.45455  0.31818  1.0000
  Ag  Ag1688    1.0  0.31818  0.50000  0.27273  1.0000
  Ag  Ag1689    1.0  0.27273  0.45455  0.36364  1.0000
  Ag  Ag1690    1.0  0.27273  0.50000  0.40909  1.0000
  Ag  Ag1691    1.0  0.31818  0.45455  0.40909  1.0000
  Ag  Ag1692    1.0  0.31818  0.50000  0.36364  1.0000
  Ag  Ag1693    1.0  0.27273  0.45455  0.45455  1.0000
  Ag  Ag1694    1.0  0.27273  0.50000  0.50000  1.0000
  Ag  Ag1695    1.0  0.31818  0.45455  0.50000  1.0000
  Ag  Ag1696    1.0  0.31818  0.50000  0.45455  1.0000
  Ag  Ag1697    1.0  0.27273  0.45455  0.54545  1.0000
  Ag  Ag1698    1.0  0.27273  0.50000  0.59091  1.0000
  Ag  Ag1699    1.0  0.31818  0.45455  0.59091  1.0000
  Ag  Ag1700    1.0  0.31818  0.50000  0.54545  1.0000
  Ag  Ag1701    1.0  0.27273  0.45455  0.63636  1.0000
  Ag  Ag1702    1.0  0.27273  0.50000  0.68182  1.0000
  Ag  Ag1703    1.0  0.31818  0.45455  0.68182  1.0000
  Ag  Ag1704    1.0  0.31818  0.50000  0.63636  1.0000
  Ag  Ag1705    1.0  0.27273  0.45455  0.72727  1.0000
  Ag  Ag1706    1.0  0.27273  0.50000  0.77273  1.0000
  Ag  Ag1707    1.0  0.31818  0.45455  0.77273  1.0000
  Ag  Ag1708    1.0  0.31818  0.50000  0.72727  1.0000
  Ag  Ag1709    1.0  0.27273  0.45455  0.81818  1.0000
  Ag  Ag1710    1.0  0.27273  0.50000  0.86364  1.0000
  Ag  Ag1711    1.0  0.31818  0.45455  0.86364  1.0000
  Ag  Ag1712    1.0  0.31818  0.50000  0.81818  1.0000
  Ag  Ag1713    1.0  0.27273  0.45455  0.90909  1.0000
  Ag  Ag1714    1.0  0.27273  0.50000  0.95455  1.0000
  Ag  Ag1715    1.0  0.31818  0.45455  0.95455  1.0000
  Ag  Ag1716    1.0  0.31818  0.50000  0.90909  1.0000
  Ag  Ag1717    1.0  0.27273  0.54545  0.00000  1.0000
  Ag  Ag1718    1.0  0.27273  0.59091  0.04545  1.0000
  Ag  Ag1719    1.0  0.31818  0.54545  0.04545  1.0000
  Ag  Ag1720    1.0  0.31818  0.59091  0.00000  1.0000
  Ag  Ag1721    1.0  0.27273  0.54545  0.09091  1.0000
  Ag  Ag1722    1.0  0.27273  0.59091  0.13636  1.0000
  Ag  Ag1723    1.0  0.31818  0.54545  0.13636  1.0000
  Ag  Ag1724    1.0  0.31818  0.59091  0.09091  1.0000
  Ag  Ag1725    1.0  0.27273  0.54545  0.18182  1.0000
  Ag  Ag1726    1.0  0.27273  0.59091  0.22727  1.0000
  Ag  Ag1727    1.0  0.31818  0.54545  0.22727  1.0000
  Ag  Ag1728    1.0  0.31818  0.59091  0.18182  1.0000
  Ag  Ag1729    1.0  0.27273  0.54545  0.27273  1.0000
  Ag  Ag1730    1.0  0.27273  0.59091  0.31818  1.0000
  Ag  Ag1731    1.0  0.31818  0.54545  0.31818  1.0000
  Ag  Ag1732    1.0  0.31818  0.59091  0.27273  1.0000
  Ag  Ag1733    1.0  0.27273  0.54545  0.36364  1.0000
  Ag  Ag1734    1.0  0.27273  0.59091  0.40909  1.0000
  Ag  Ag1735    1.0  0.31818  0.54545  0.40909  1.0000
  Ag  Ag1736    1.0  0.31818  0.59091  0.36364  1.0000
  Ag  Ag1737    1.0  0.27273  0.54545  0.45455  1.0000
  Ag  Ag1738    1.0  0.27273  0.59091  0.50000  1.0000
  Ag  Ag1739    1.0  0.31818  0.54545  0.50000  1.0000
  Ag  Ag1740    1.0  0.31818  0.59091  0.45455  1.0000
  Ag  Ag1741    1.0  0.27273  0.54545  0.54545  1.0000
  Ag  Ag1742    1.0  0.27273  0.59091  0.59091  1.0000
  Ag  Ag1743    1.0  0.31818  0.54545  0.59091  1.0000
  Ag  Ag1744    1.0  0.31818  0.59091  0.54545  1.0000
  Ag  Ag1745    1.0  0.27273  0.54545  0.63636  1.0000
  Ag  Ag1746    1.0  0.27273  0.59091  0.68182  1.0000
  Ag  Ag1747    1.0  0.31818  0.54545  0.68182  1.0000
  Ag  Ag1748    1.0  0.31818  0.59091  0.63636  1.0000
  Ag  Ag1749    1.0  0.27273  0.54545  0.72727  1.0000
  Ag  Ag1750    1.0  0.27273  0.59091  0.77273  1.0000
  Ag  Ag1751    1.0  0.31818  0.54545  0.77273  1.0000
  Ag  Ag1752    1.0  0.31818  0.59091  0.72727  1.0000
  Ag  Ag1753    1.0  0.27273  0.54545  0.81818  1.0000
  Ag  Ag1754    1.0  0.27273  0.59091  0.86364  1.0000
  Ag  Ag1755    1.0  0.31818  0.54545  0.86364  1.0000
  Ag  Ag1756    1.0  0.31818  0.59091  0.81818  1.0000
  Ag  Ag1757    1.0  0.27273  0.54545  0.90909  1.0000
  Ag  Ag1758    1.0  0.27273  0.59091  0.95455  1.0000
  Ag  Ag1759    1.0  0.31818  0.54545  0.95455  1.0000
  Ag  Ag1760    1.0  0.31818  0.59091  0.90909  1.0000
  Ag  Ag1761    1.0  0.27273  0.63636  0.00000  1.0000
  Ag  Ag1762    1.0  0.27273  0.68182  0.04545  1.0000
  Ag  Ag1763    1.0  0.31818  0.63636  0.04545  1.0000
  Ag  Ag1764    1.0  0.31818  0.68182  0.00000  1.0000
  Ag  Ag1765    1.0  0.27273  0.63636  0.09091  1.0000
  Ag  Ag1766    1.0  0.27273  0.68182  0.13636  1.0000
  Ag  Ag1767    1.0  0.31818  0.63636  0.13636  1.0000
  Ag  Ag1768    1.0  0.31818  0.68182  0.09091  1.0000
  Ag  Ag1769    1.0  0.27273  0.63636  0.18182  1.0000
  Ag  Ag1770    1.0  0.27273  0.68182  0.22727  1.0000
  Ag  Ag1771    1.0  0.31818  0.63636  0.22727  1.0000
  Ag  Ag1772    1.0  0.31818  0.68182  0.18182  1.0000
  Ag  Ag1773    1.0  0.27273  0.63636  0.27273  1.0000
  Ag  Ag1774    1.0  0.27273  0.68182  0.31818  1.0000
  Ag  Ag1775    1.0  0.31818  0.63636  0.31818  1.0000
  Ag  Ag1776    1.0  0.31818  0.68182  0.27273  1.0000
  Ag  Ag1777    1.0  0.27273  0.63636  0.36364  1.0000
  Ag  Ag1778    1.0  0.27273  0.68182  0.40909  1.0000
  Ag  Ag1779    1.0  0.31818  0.63636  0.40909  1.0000
  Ag  Ag1780    1.0  0.31818  0.68182  0.36364  1.0000
  Ag  Ag1781    1.0  0.27273  0.63636  0.45455  1.0000
  Ag  Ag1782    1.0  0.27273  0.68182  0.50000  1.0000
  Ag  Ag1783    1.0  0.31818  0.63636  0.50000  1.0000
  Ag  Ag1784    1.0  0.31818  0.68182  0.45455  1.0000
  Ag  Ag1785    1.0  0.27273  0.63636  0.54545  1.0000
  Ag  Ag1786    1.0  0.27273  0.68182  0.59091  1.0000
  Ag  Ag1787    1.0  0.31818  0.63636  0.59091  1.0000
  Ag  Ag1788    1.0  0.31818  0.68182  0.54545  1.0000
  Ag  Ag1789    1.0  0.27273  0.63636  0.63636  1.0000
  Ag  Ag1790    1.0  0.27273  0.68182  0.68182  1.0000
  Ag  Ag1791    1.0  0.31818  0.63636  0.68182  1.0000
  Ag  Ag1792    1.0  0.31818  0.68182  0.63636  1.0000
  Ag  Ag1793    1.0  0.27273  0.63636  0.72727  1.0000
  Ag  Ag1794    1.0  0.27273  0.68182  0.77273  1.0000
  Ag  Ag1795    1.0  0.31818  0.63636  0.77273  1.0000
  Ag  Ag1796    1.0  0.31818  0.68182  0.72727  1.0000
  Ag  Ag1797    1.0  0.27273  0.63636  0.81818  1.0000
  Ag  Ag1798    1.0  0.27273  0.68182  0.86364  1.0000
  Ag  Ag1799    1.0  0.31818  0.63636  0.86364  1.0000
  Ag  Ag1800    1.0  0.31818  0.68182  0.81818  1.0000
  Ag  Ag1801    1.0  0.27273  0.63636  0.90909  1.0000
  Ag  Ag1802    1.0  0.27273  0.68182  0.95455  1.0000
  Ag  Ag1803    1.0  0.31818  0.63636  0.95455  1.0000
  Ag  Ag1804    1.0  0.31818  0.68182  0.90909  1.0000
  Ag  Ag1805    1.0  0.27273  0.72727  0.00000  1.0000
  Ag  Ag1806    1.0  0.27273  0.77273  0.04545  1.0000
  Ag  Ag1807    1.0  0.31818  0.72727  0.04545  1.0000
  Ag  Ag1808    1.0  0.31818  0.77273  0.00000  1.0000
  Ag  Ag1809    1.0  0.27273  0.72727  0.09091  1.0000
  Ag  Ag1810    1.0  0.27273  0.77273  0.13636  1.0000
  Ag  Ag1811    1.0  0.31818  0.72727  0.13636  1.0000
  Ag  Ag1812    1.0  0.31818  0.77273  0.09091  1.0000
  Ag  Ag1813    1.0  0.27273  0.72727  0.18182  1.0000
  Ag  Ag1814    1.0  0.27273  0.77273  0.22727  1.0000
  Ag  Ag1815    1.0  0.31818  0.72727  0.22727  1.0000
  Ag  Ag1816    1.0  0.31818  0.77273  0.18182  1.0000
  Ag  Ag1817    1.0  0.27273  0.72727  0.27273  1.0000
  Ag  Ag1818    1.0  0.27273  0.77273  0.31818  1.0000
  Ag  Ag1819    1.0  0.31818  0.72727  0.31818  1.0000
  Ag  Ag1820    1.0  0.31818  0.77273  0.27273  1.0000
  Ag  Ag1821    1.0  0.27273  0.72727  0.36364  1.0000
  Ag  Ag1822    1.0  0.27273  0.77273  0.40909  1.0000
  Ag  Ag1823    1.0  0.31818  0.72727  0.40909  1.0000
  Ag  Ag1824    1.0  0.31818  0.77273  0.36364  1.0000
  Ag  Ag1825    1.0  0.27273  0.72727  0.45455  1.0000
  Ag  Ag1826    1.0  0.27273  0.77273  0.50000  1.0000
  Ag  Ag1827    1.0  0.31818  0.72727  0.50000  1.0000
  Ag  Ag1828    1.0  0.31818  0.77273  0.45455  1.0000
  Ag  Ag1829    1.0  0.27273  0.72727  0.54545  1.0000
  Ag  Ag1830    1.0  0.27273  0.77273  0.59091  1.0000
  Ag  Ag1831    1.0  0.31818  0.72727  0.59091  1.0000
  Ag  Ag1832    1.0  0.31818  0.77273  0.54545  1.0000
  Ag  Ag1833    1.0  0.27273  0.72727  0.63636  1.0000
  Ag  Ag1834    1.0  0.27273  0.77273  0.68182  1.0000
  Ag  Ag1835    1.0  0.31818  0.72727  0.68182  1.0000
  Ag  Ag1836    1.0  0.31818  0.77273  0.63636  1.0000
  Ag  Ag1837    1.0  0.27273  0.72727  0.72727  1.0000
  Ag  Ag1838    1.0  0.27273  0.77273  0.77273  1.0000
  Ag  Ag1839    1.0  0.31818  0.72727  0.77273  1.0000
  Ag  Ag1840    1.0  0.31818  0.77273  0.72727  1.0000
  Ag  Ag1841    1.0  0.27273  0.72727  0.81818  1.0000
  Ag  Ag1842    1.0  0.27273  0.77273  0.86364  1.0000
  Ag  Ag1843    1.0  0.31818  0.72727  0.86364  1.0000
  Ag  Ag1844    1.0  0.31818  0.77273  0.81818  1.0000
  Ag  Ag1845    1.0  0.27273  0.72727  0.90909  1.0000
  Ag  Ag1846    1.0  0.27273  0.77273  0.95455  1.0000
  Ag  Ag1847    1.0  0.31818  0.72727  0.95455  1.0000
  Ag  Ag1848    1.0  0.31818  0.77273  0.90909  1.0000
  Ag  Ag1849    1.0  0.27273  0.81818  0.00000  1.0000
  Ag  Ag1850    1.0  0.27273  0.86364  0.04545  1.0000
  Ag  Ag1851    1.0  0.31818  0.81818  0.04545  1.0000
  Ag  Ag1852    1.0  0.31818  0.86364  0.00000  1.0000
  Ag  Ag1853    1.0  0.27273  0.81818  0.09091  1.0000
  Ag  Ag1854    1.0  0.27273  0.86364  0.13636  1.0000
  Ag  Ag1855    1.0  0.31818  0.81818  0.13636  1.0000
  Ag  Ag1856    1.0  0.31818  0.86364  0.09091  1.0000
  Ag  Ag1857    1.0  0.27273  0.81818  0.18182  1.0000
  Ag  Ag1858    1.0  0.27273  0.86364  0.22727  1.0000
  Ag  Ag1859    1.0  0.31818  0.81818  0.22727  1.0000
  Ag  Ag1860    1.0  0.31818  0.86364  0.18182  1.0000
  Ag  Ag1861    1.0  0.27273  0.81818  0.27273  1.0000
  Ag  Ag1862    1.0  0.27273  0.86364  0.31818  1.0000
  Ag  Ag1863    1.0  0.31818  0.81818  0.31818  1.0000
  Ag  Ag1864    1.0  0.31818  0.86364  0.27273  1.0000
  Ag  Ag1865    1.0  0.27273  0.81818  0.36364  1.0000
  Ag  Ag1866    1.0  0.27273  0.86364  0.40909  1.0000
  Ag  Ag1867    1.0  0.31818  0.81818  0.40909  1.0000
  Ag  Ag1868    1.0  0.31818  0.86364  0.36364  1.0000
  Ag  Ag1869    1.0  0.27273  0.81818  0.45455  1.0000
  Ag  Ag1870    1.0  0.27273  0.86364  0.50000  1.0000
  Ag  Ag1871    1.0  0.31818  0.81818  0.50000  1.0000
  Ag  Ag1872    1.0  0.31818  0.86364  0.45455  1.0000
  Ag  Ag1873    1.0  0.27273  0.81818  0.54545  1.0000
  Ag  Ag1874    1.0  0.27273  0.86364  0.59091  1.0000
  Ag  Ag1875    1.0  0.31818  0.81818  0.59091  1.0000
  Ag  Ag1876    1.0  0.31818  0.86364  0.54545  1.0000
  Ag  Ag1877    1.0  0.27273  0.81818  0.63636  1.0000
  Ag  Ag1878    1.0  0.27273  0.86364  0.68182  1.0000
  Ag  Ag1879    1.0  0.31818  0.81818  0.68182  1.0000
  Ag  Ag1880    1.0  0.31818  0.86364  0.63636  1.0000
  Ag  Ag1881    1.0  0.27273  0.81818  0.72727  1.0000
  Ag  Ag1882    1.0  0.27273  0.86364  0.77273  1.0000
  Ag  Ag1883    1.0  0.31818  0.81818  0.77273  1.0000
  Ag  Ag1884    1.0  0.31818  0.86364  0.72727  1.0000
  Ag  Ag1885    1.0  0.27273  0.81818  0.81818  1.0000
  Ag  Ag1886    1.0  0.27273  0.86364  0.86364  1.0000
  Ag  Ag1887    1.0  0.31818  0.81818  0.86364  1.0000
  Ag  Ag1888    1.0  0.31818  0.86364  0.81818  1.0000
  Ag  Ag1889    1.0  0.27273  0.81818  0.90909  1.0000
  Ag  Ag1890    1.0  0.27273  0.86364  0.95455  1.0000
  Ag  Ag1891    1.0  0.31818  0.81818  0.95455  1.0000
  Ag  Ag1892    1.0  0.31818  0.86364  0.90909  1.0000
  Ag  Ag1893    1.0  0.27273  0.90909  0.00000  1.0000
  Ag  Ag1894    1.0  0.27273  0.95455  0.04545  1.0000
  Ag  Ag1895    1.0  0.31818  0.90909  0.04545  1.0000
  Ag  Ag1896    1.0  0.31818  0.95455  0.00000  1.0000
  Ag  Ag1897    1.0  0.27273  0.90909  0.09091  1.0000
  Ag  Ag1898    1.0  0.27273  0.95455  0.13636  1.0000
  Ag  Ag1899    1.0  0.31818  0.90909  0.13636  1.0000
  Ag  Ag1900    1.0  0.31818  0.95455  0.09091  1.0000
  Ag  Ag1901    1.0  0.27273  0.90909  0.18182  1.0000
  Ag  Ag1902    1.0  0.27273  0.95455  0.22727  1.0000
  Ag  Ag1903    1.0  0.31818  0.90909  0.22727  1.0000
  Ag  Ag1904    1.0  0.31818  0.95455  0.18182  1.0000
  Ag  Ag1905    1.0  0.27273  0.90909  0.27273  1.0000
  Ag  Ag1906    1.0  0.27273  0.95455  0.31818  1.0000
  Ag  Ag1907    1.0  0.31818  0.90909  0.31818  1.0000
  Ag  Ag1908    1.0  0.31818  0.95455  0.27273  1.0000
  Ag  Ag1909    1.0  0.27273  0.90909  0.36364  1.0000
  Ag  Ag1910    1.0  0.27273  0.95455  0.40909  1.0000
  Ag  Ag1911    1.0  0.31818  0.90909  0.40909  1.0000
  Ag  Ag1912    1.0  0.31818  0.95455  0.36364  1.0000
  Ag  Ag1913    1.0  0.27273  0.90909  0.45455  1.0000
  Ag  Ag1914    1.0  0.27273  0.95455  0.50000  1.0000
  Ag  Ag1915    1.0  0.31818  0.90909  0.50000  1.0000
  Ag  Ag1916    1.0  0.31818  0.95455  0.45455  1.0000
  Ag  Ag1917    1.0  0.27273  0.90909  0.54545  1.0000
  Ag  Ag1918    1.0  0.27273  0.95455  0.59091  1.0000
  Ag  Ag1919    1.0  0.31818  0.90909  0.59091  1.0000
  Ag  Ag1920    1.0  0.31818  0.95455  0.54545  1.0000
  Ag  Ag1921    1.0  0.27273  0.90909  0.63636  1.0000
  Ag  Ag1922    1.0  0.27273  0.95455  0.68182  1.0000
  Ag  Ag1923    1.0  0.31818  0.90909  0.68182  1.0000
  Ag  Ag1924    1.0  0.31818  0.95455  0.63636  1.0000
  Ag  Ag1925    1.0  0.27273  0.90909  0.72727  1.0000
  Ag  Ag1926    1.0  0.27273  0.95455  0.77273  1.0000
  Ag  Ag1927    1.0  0.31818  0.90909  0.77273  1.0000
  Ag  Ag1928    1.0  0.31818  0.95455  0.72727  1.0000
  Ag  Ag1929    1.0  0.27273  0.90909  0.81818  1.0000
  Ag  Ag1930    1.0  0.27273  0.95455  0.86364  1.0000
  Ag  Ag1931    1.0  0.31818  0.90909  0.86364  1.0000
  Ag  Ag1932    1.0  0.31818  0.95455  0.81818  1.0000
  Ag  Ag1933    1.0  0.27273  0.90909  0.90909  1.0000
  Ag  Ag1934    1.0  0.27273  0.95455  0.95455  1.0000
  Ag  Ag1935    1.0  0.31818  0.90909  0.95455  1.0000
  Ag  Ag1936    1.0  0.31818  0.95455  0.90909  1.0000
  Ag  Ag1937    1.0  0.36364  0.00000  0.00000  1.0000
  Ag  Ag1938    1.0  0.36364  0.04545  0.04545  1.0000
  Ag  Ag1939    1.0  0.40909  0.00000  0.04545  1.0000
  Ag  Ag1940    1.0  0.40909  0.04545  0.00000  1.0000
  Ag  Ag1941    1.0  0.36364  0.00000  0.09091  1.0000
  Ag  Ag1942    1.0  0.36364  0.04545  0.13636  1.0000
  Ag  Ag1943    1.0  0.40909  0.00000  0.13636  1.0000
  Ag  Ag1944    1.0  0.40909  0.04545  0.09091  1.0000
  Ag  Ag1945    1.0  0.36364  0.00000  0.18182  1.0000
  Ag  Ag1946    1.0  0.36364  0.04545  0.22727  1.0000
  Ag  Ag1947    1.0  0.40909  0.00000  0.22727  1.0000
  Ag  Ag1948    1.0  0.40909  0.04545  0.18182  1.0000
  Ag  Ag1949    1.0  0.36364  0.00000  0.27273  1.0000
  Ag  Ag1950    1.0  0.36364  0.04545  0.31818  1.0000
  Ag  Ag1951    1.0  0.40909  0.00000  0.31818  1.0000
  Ag  Ag1952    1.0  0.40909  0.04545  0.27273  1.0000
  Ag  Ag1953    1.0  0.36364  0.00000  0.36364  1.0000
  Ag  Ag1954    1.0  0.36364  0.04545  0.40909  1.0000
  Ag  Ag1955    1.0  0.40909  0.00000  0.40909  1.0000
  Ag  Ag1956    1.0  0.40909  0.04545  0.36364  1.0000
  Ag  Ag1957    1.0  0.36364  0.00000  0.45455  1.0000
  Ag  Ag1958    1.0  0.36364  0.04545  0.50000  1.0000
  Ag  Ag1959    1.0  0.40909  0.00000  0.50000  1.0000
  Ag  Ag1960    1.0  0.40909  0.04545  0.45455  1.0000
  Ag  Ag1961    1.0  0.36364  0.00000  0.54545  1.0000
  Ag  Ag1962    1.0  0.36364  0.04545  0.59091  1.0000
  Ag  Ag1963    1.0  0.40909  0.00000  0.59091  1.0000
  Ag  Ag1964    1.0  0.40909  0.04545  0.54545  1.0000
  Ag  Ag1965    1.0  0.36364  0.00000  0.63636  1.0000
  Ag  Ag1966    1.0  0.36364  0.04545  0.68182  1.0000
  Ag  Ag1967    1.0  0.40909  0.00000  0.68182  1.0000
  Ag  Ag1968    1.0  0.40909  0.04545  0.63636  1.0000
  Ag  Ag1969    1.0  0.36364  0.00000  0.72727  1.0000
  Ag  Ag1970    1.0  0.36364  0.04545  0.77273  1.0000
  Ag  Ag1971    1.0  0.40909  0.00000  0.77273  1.0000
  Ag  Ag1972    1.0  0.40909  0.04545  0.72727  1.0000
  Ag  Ag1973    1.0  0.36364  0.00000  0.81818  1.0000
  Ag  Ag1974    1.0  0.36364  0.04545  0.86364  1.0000
  Ag  Ag1975    1.0  0.40909  0.00000  0.86364  1.0000
  Ag  Ag1976    1.0  0.40909  0.04545  0.81818  1.0000
  Ag  Ag1977    1.0  0.36364  0.00000  0.90909  1.0000
  Ag  Ag1978    1.0  0.36364  0.04545  0.95455  1.0000
  Ag  Ag1979    1.0  0.40909  0.00000  0.95455  1.0000
  Ag  Ag1980    1.0  0.40909  0.04545  0.90909  1.0000
  Ag  Ag1981    1.0  0.36364  0.09091  0.00000  1.0000
  Ag  Ag1982    1.0  0.36364  0.13636  0.04545  1.0000
  Ag  Ag1983    1.0  0.40909  0.09091  0.04545  1.0000
  Ag  Ag1984    1.0  0.40909  0.13636  0.00000  1.0000
  Ag  Ag1985    1.0  0.36364  0.09091  0.09091  1.0000
  Ag  Ag1986    1.0  0.36364  0.13636  0.13636  1.0000
  Ag  Ag1987    1.0  0.40909  0.09091  0.13636  1.0000
  Ag  Ag1988    1.0  0.40909  0.13636  0.09091  1.0000
  Ag  Ag1989    1.0  0.36364  0.09091  0.18182  1.0000
  Ag  Ag1990    1.0  0.36364  0.13636  0.22727  1.0000
  Ag  Ag1991    1.0  0.40909  0.09091  0.22727  1.0000
  Ag  Ag1992    1.0  0.40909  0.13636  0.18182  1.0000
  Ag  Ag1993    1.0  0.36364  0.09091  0.27273  1.0000
  Ag  Ag1994    1.0  0.36364  0.13636  0.31818  1.0000
  Ag  Ag1995    1.0  0.40909  0.09091  0.31818  1.0000
  Ag  Ag1996    1.0  0.40909  0.13636  0.27273  1.0000
  Ag  Ag1997    1.0  0.36364  0.09091  0.36364  1.0000
  Ag  Ag1998    1.0  0.36364  0.13636  0.40909  1.0000
  Ag  Ag1999    1.0  0.40909  0.09091  0.40909  1.0000
  Ag  Ag2000    1.0  0.40909  0.13636  0.36364  1.0000
  Ag  Ag2001    1.0  0.36364  0.09091  0.45455  1.0000
  Ag  Ag2002    1.0  0.36364  0.13636  0.50000  1.0000
  Ag  Ag2003    1.0  0.40909  0.09091  0.50000  1.0000
  Ag  Ag2004    1.0  0.40909  0.13636  0.45455  1.0000
  Ag  Ag2005    1.0  0.36364  0.09091  0.54545  1.0000
  Ag  Ag2006    1.0  0.36364  0.13636  0.59091  1.0000
  Ag  Ag2007    1.0  0.40909  0.09091  0.59091  1.0000
  Ag  Ag2008    1.0  0.40909  0.13636  0.54545  1.0000
  Ag  Ag2009    1.0  0.36364  0.09091  0.63636  1.0000
  Ag  Ag2010    1.0  0.36364  0.13636  0.68182  1.0000
  Ag  Ag2011    1.0  0.40909  0.09091  0.68182  1.0000
  Ag  Ag2012    1.0  0.40909  0.13636  0.63636  1.0000
  Ag  Ag2013    1.0  0.36364  0.09091  0.72727  1.0000
  Ag  Ag2014    1.0  0.36364  0.13636  0.77273  1.0000
  Ag  Ag2015    1.0  0.40909  0.09091  0.77273  1.0000
  Ag  Ag2016    1.0  0.40909  0.13636  0.72727  1.0000
  Ag  Ag2017    1.0  0.36364  0.09091  0.81818  1.0000
  Ag  Ag2018    1.0  0.36364  0.13636  0.86364  1.0000
  Ag  Ag2019    1.0  0.40909  0.09091  0.86364  1.0000
  Ag  Ag2020    1.0  0.40909  0.13636  0.81818  1.0000
  Ag  Ag2021    1.0  0.36364  0.09091  0.90909  1.0000
  Ag  Ag2022    1.0  0.36364  0.13636  0.95455  1.0000
  Ag  Ag2023    1.0  0.40909  0.09091  0.95455  1.0000
  Ag  Ag2024    1.0  0.40909  0.13636  0.90909  1.0000
  Ag  Ag2025    1.0  0.36364  0.18182  0.00000  1.0000
  Ag  Ag2026    1.0  0.36364  0.22727  0.04545  1.0000
  Ag  Ag2027    1.0  0.40909  0.18182  0.04545  1.0000
  Ag  Ag2028    1.0  0.40909  0.22727  0.00000  1.0000
  Ag  Ag2029    1.0  0.36364  0.18182  0.09091  1.0000
  Ag  Ag2030    1.0  0.36364  0.22727  0.13636  1.0000
  Ag  Ag2031    1.0  0.40909  0.18182  0.13636  1.0000
  Ag  Ag2032    1.0  0.40909  0.22727  0.09091  1.0000
  Ag  Ag2033    1.0  0.36364  0.18182  0.18182  1.0000
  Ag  Ag2034    1.0  0.36364  0.22727  0.22727  1.0000
  Ag  Ag2035    1.0  0.40909  0.18182  0.22727  1.0000
  Ag  Ag2036    1.0  0.40909  0.22727  0.18182  1.0000
  Ag  Ag2037    1.0  0.36364  0.18182  0.27273  1.0000
  Ag  Ag2038    1.0  0.36364  0.22727  0.31818  1.0000
  Ag  Ag2039    1.0  0.40909  0.18182  0.31818  1.0000
  Ag  Ag2040    1.0  0.40909  0.22727  0.27273  1.0000
  Ag  Ag2041    1.0  0.36364  0.18182  0.36364  1.0000
  Ag  Ag2042    1.0  0.36364  0.22727  0.40909  1.0000
  Ag  Ag2043    1.0  0.40909  0.18182  0.40909  1.0000
  Ag  Ag2044    1.0  0.40909  0.22727  0.36364  1.0000
  Ag  Ag2045    1.0  0.36364  0.18182  0.45455  1.0000
  Ag  Ag2046    1.0  0.36364  0.22727  0.50000  1.0000
  Ag  Ag2047    1.0  0.40909  0.18182  0.50000  1.0000
  Ag  Ag2048    1.0  0.40909  0.22727  0.45455  1.0000
  Ag  Ag2049    1.0  0.36364  0.18182  0.54545  1.0000
  Ag  Ag2050    1.0  0.36364  0.22727  0.59091  1.0000
  Ag  Ag2051    1.0  0.40909  0.18182  0.59091  1.0000
  Ag  Ag2052    1.0  0.40909  0.22727  0.54545  1.0000
  Ag  Ag2053    1.0  0.36364  0.18182  0.63636  1.0000
  Ag  Ag2054    1.0  0.36364  0.22727  0.68182  1.0000
  Ag  Ag2055    1.0  0.40909  0.18182  0.68182  1.0000
  Ag  Ag2056    1.0  0.40909  0.22727  0.63636  1.0000
  Ag  Ag2057    1.0  0.36364  0.18182  0.72727  1.0000
  Ag  Ag2058    1.0  0.36364  0.22727  0.77273  1.0000
  Ag  Ag2059    1.0  0.40909  0.18182  0.77273  1.0000
  Ag  Ag2060    1.0  0.40909  0.22727  0.72727  1.0000
  Ag  Ag2061    1.0  0.36364  0.18182  0.81818  1.0000
  Ag  Ag2062    1.0  0.36364  0.22727  0.86364  1.0000
  Ag  Ag2063    1.0  0.40909  0.18182  0.86364  1.0000
  Ag  Ag2064    1.0  0.40909  0.22727  0.81818  1.0000
  Ag  Ag2065    1.0  0.36364  0.18182  0.90909  1.0000
  Ag  Ag2066    1.0  0.36364  0.22727  0.95455  1.0000
  Ag  Ag2067    1.0  0.40909  0.18182  0.95455  1.0000
  Ag  Ag2068    1.0  0.40909  0.22727  0.90909  1.0000
  Ag  Ag2069    1.0  0.36364  0.27273  0.00000  1.0000
  Ag  Ag2070    1.0  0.36364  0.31818  0.04545  1.0000
  Ag  Ag2071    1.0  0.40909  0.27273  0.04545  1.0000
  Ag  Ag2072    1.0  0.40909  0.31818  0.00000  1.0000
  Ag  Ag2073    1.0  0.36364  0.27273  0.09091  1.0000
  Ag  Ag2074    1.0  0.36364  0.31818  0.13636  1.0000
  Ag  Ag2075    1.0  0.40909  0.27273  0.13636  1.0000
  Ag  Ag2076    1.0  0.40909  0.31818  0.09091  1.0000
  Ag  Ag2077    1.0  0.36364  0.27273  0.18182  1.0000
  Ag  Ag2078    1.0  0.36364  0.31818  0.22727  1.0000
  Ag  Ag2079    1.0  0.40909  0.27273  0.22727  1.0000
  Ag  Ag2080    1.0  0.40909  0.31818  0.18182  1.0000
  Ag  Ag2081    1.0  0.36364  0.27273  0.27273  1.0000
  Ag  Ag2082    1.0  0.36364  0.31818  0.31818  1.0000
  Ag  Ag2083    1.0  0.40909  0.27273  0.31818  1.0000
  Ag  Ag2084    1.0  0.40909  0.31818  0.27273  1.0000
  Ag  Ag2085    1.0  0.36364  0.27273  0.36364  1.0000
  Ag  Ag2086    1.0  0.36364  0.31818  0.40909  1.0000
  Ag  Ag2087    1.0  0.40909  0.27273  0.40909  1.0000
  Ag  Ag2088    1.0  0.40909  0.31818  0.36364  1.0000
  Ag  Ag2089    1.0  0.36364  0.27273  0.45455  1.0000
  Ag  Ag2090    1.0  0.36364  0.31818  0.50000  1.0000
  Ag  Ag2091    1.0  0.40909  0.27273  0.50000  1.0000
  Ag  Ag2092    1.0  0.40909  0.31818  0.45455  1.0000
  Ag  Ag2093    1.0  0.36364  0.27273  0.54545  1.0000
  Ag  Ag2094    1.0  0.36364  0.31818  0.59091  1.0000
  Ag  Ag2095    1.0  0.40909  0.27273  0.59091  1.0000
  Ag  Ag2096    1.0  0.40909  0.31818  0.54545  1.0000
  Ag  Ag2097    1.0  0.36364  0.27273  0.63636  1.0000
  Ag  Ag2098    1.0  0.36364  0.31818  0.68182  1.0000
  Ag  Ag2099    1.0  0.40909  0.27273  0.68182  1.0000
  Ag  Ag2100    1.0  0.40909  0.31818  0.63636  1.0000
  Ag  Ag2101    1.0  0.36364  0.27273  0.72727  1.0000
  Ag  Ag2102    1.0  0.36364  0.31818  0.77273  1.0000
  Ag  Ag2103    1.0  0.40909  0.27273  0.77273  1.0000
  Ag  Ag2104    1.0  0.40909  0.31818  0.72727  1.0000
  Ag  Ag2105    1.0  0.36364  0.27273  0.81818  1.0000
  Ag  Ag2106    1.0  0.36364  0.31818  0.86364  1.0000
  Ag  Ag2107    1.0  0.40909  0.27273  0.86364  1.0000
  Ag  Ag2108    1.0  0.40909  0.31818  0.81818  1.0000
  Ag  Ag2109    1.0  0.36364  0.27273  0.90909  1.0000
  Ag  Ag2110    1.0  0.36364  0.31818  0.95455  1.0000
  Ag  Ag2111    1.0  0.40909  0.27273  0.95455  1.0000
  Ag  Ag2112    1.0  0.40909  0.31818  0.90909  1.0000
  Ag  Ag2113    1.0  0.36364  0.36364  0.00000  1.0000
  Ag  Ag2114    1.0  0.36364  0.40909  0.04545  1.0000
  Ag  Ag2115    1.0  0.40909  0.36364  0.04545  1.0000
  Ag  Ag2116    1.0  0.40909  0.40909  0.00000  1.0000
  Ag  Ag2117    1.0  0.36364  0.36364  0.09091  1.0000
  Ag  Ag2118    1.0  0.36364  0.40909  0.13636  1.0000
  Ag  Ag2119    1.0  0.40909  0.36364  0.13636  1.0000
  Ag  Ag2120    1.0  0.40909  0.40909  0.09091  1.0000
  Ag  Ag2121    1.0  0.36364  0.36364  0.18182  1.0000
  Ag  Ag2122    1.0  0.36364  0.40909  0.22727  1.0000
  Ag  Ag2123    1.0  0.40909  0.36364  0.22727  1.0000
  Ag  Ag2124    1.0  0.40909  0.40909  0.18182  1.0000
  Ag  Ag2125    1.0  0.36364  0.36364  0.27273  1.0000
  Ag  Ag2126    1.0  0.36364  0.40909  0.31818  1.0000
  Ag  Ag2127    1.0  0.40909  0.36364  0.31818  1.0000
  Ag  Ag2128    1.0  0.40909  0.40909  0.27273  1.0000
  Ag  Ag2129    1.0  0.36364  0.36364  0.36364  1.0000
  Ag  Ag2130    1.0  0.36364  0.40909  0.40909  1.0000
  Ag  Ag2131    1.0  0.40909  0.36364  0.40909  1.0000
  Ag  Ag2132    1.0  0.40909  0.40909  0.36364  1.0000
  Ag  Ag2133    1.0  0.36364  0.36364  0.45455  1.0000
  Ag  Ag2134    1.0  0.36364  0.40909  0.50000  1.0000
  Ag  Ag2135    1.0  0.40909  0.36364  0.50000  1.0000
  Ag  Ag2136    1.0  0.40909  0.40909  0.45455  1.0000
  Ag  Ag2137    1.0  0.36364  0.36364  0.54545  1.0000
  Ag  Ag2138    1.0  0.36364  0.40909  0.59091  1.0000
  Ag  Ag2139    1.0  0.40909  0.36364  0.59091  1.0000
  Ag  Ag2140    1.0  0.40909  0.40909  0.54545  1.0000
  Ag  Ag2141    1.0  0.36364  0.36364  0.63636  1.0000
  Ag  Ag2142    1.0  0.36364  0.40909  0.68182  1.0000
  Ag  Ag2143    1.0  0.40909  0.36364  0.68182  1.0000
  Ag  Ag2144    1.0  0.40909  0.40909  0.63636  1.0000
  Ag  Ag2145    1.0  0.36364  0.36364  0.72727  1.0000
  Ag  Ag2146    1.0  0.36364  0.40909  0.77273  1.0000
  Ag  Ag2147    1.0  0.40909  0.36364  0.77273  1.0000
  Ag  Ag2148    1.0  0.40909  0.40909  0.72727  1.0000
  Ag  Ag2149    1.0  0.36364  0.36364  0.81818  1.0000
  Ag  Ag2150    1.0  0.36364  0.40909  0.86364  1.0000
  Ag  Ag2151    1.0  0.40909  0.36364  0.86364  1.0000
  Ag  Ag2152    1.0  0.40909  0.40909  0.81818  1.0000
  Ag  Ag2153    1.0  0.36364  0.36364  0.90909  1.0000
  Ag  Ag2154    1.0  0.36364  0.40909  0.95455  1.0000
  Ag  Ag2155    1.0  0.40909  0.36364  0.95455  1.0000
  Ag  Ag2156    1.0  0.40909  0.40909  0.90909  1.0000
  Ag  Ag2157    1.0  0.36364  0.45455  0.00000  1.0000
  Ag  Ag2158    1.0  0.36364  0.50000  0.04545  1.0000
  Ag  Ag2159    1.0  0.40909  0.45455  0.04545  1.0000
  Ag  Ag2160    1.0  0.40909  0.50000  0.00000  1.0000
  Ag  Ag2161    1.0  0.36364  0.45455  0.09091  1.0000
  Ag  Ag2162    1.0  0.36364  0.50000  0.13636  1.0000
  Ag  Ag2163    1.0  0.40909  0.45455  0.13636  1.0000
  Ag  Ag2164    1.0  0.40909  0.50000  0.09091  1.0000
  Ag  Ag2165    1.0  0.36364  0.45455  0.18182  1.0000
  Ag  Ag2166    1.0  0.36364  0.50000  0.22727  1.0000
  Ag  Ag2167    1.0  0.40909  0.45455  0.22727  1.0000
  Ag  Ag2168    1.0  0.40909  0.50000  0.18182  1.0000
  Ag  Ag2169    1.0  0.36364  0.45455  0.27273  1.0000
  Ag  Ag2170    1.0  0.36364  0.50000  0.31818  1.0000
  Ag  Ag2171    1.0  0.40909  0.45455  0.31818  1.0000
  Ag  Ag2172    1.0  0.40909  0.50000  0.27273  1.0000
  Ag  Ag2173    1.0  0.36364  0.45455  0.36364  1.0000
  Ag  Ag2174    1.0  0.36364  0.50000  0.40909  1.0000
  Ag  Ag2175    1.0  0.40909  0.45455  0.40909  1.0000
  Ag  Ag2176    1.0  0.40909  0.50000  0.36364  1.0000
  Ag  Ag2177    1.0  0.36364  0.45455  0.45455  1.0000
  Ag  Ag2178    1.0  0.36364  0.50000  0.50000  1.0000
  Ag  Ag2179    1.0  0.40909  0.45455  0.50000  1.0000
  Ag  Ag2180    1.0  0.40909  0.50000  0.45455  1.0000
  Ag  Ag2181    1.0  0.36364  0.45455  0.54545  1.0000
  Ag  Ag2182    1.0  0.36364  0.50000  0.59091  1.0000
  Ag  Ag2183    1.0  0.40909  0.45455  0.59091  1.0000
  Ag  Ag2184    1.0  0.40909  0.50000  0.54545  1.0000
  Ag  Ag2185    1.0  0.36364  0.45455  0.63636  1.0000
  Ag  Ag2186    1.0  0.36364  0.50000  0.68182  1.0000
  Ag  Ag2187    1.0  0.40909  0.45455  0.68182  1.0000
  Ag  Ag2188    1.0  0.40909  0.50000  0.63636  1.0000
  Ag  Ag2189    1.0  0.36364  0.45455  0.72727  1.0000
  Ag  Ag2190    1.0  0.36364  0.50000  0.77273  1.0000
  Ag  Ag2191    1.0  0.40909  0.45455  0.77273  1.0000
  Ag  Ag2192    1.0  0.40909  0.50000  0.72727  1.0000
  Ag  Ag2193    1.0  0.36364  0.45455  0.81818  1.0000
  Ag  Ag2194    1.0  0.36364  0.50000  0.86364  1.0000
  Ag  Ag2195    1.0  0.40909  0.45455  0.86364  1.0000
  Ag  Ag2196    1.0  0.40909  0.50000  0.81818  1.0000
  Ag  Ag2197    1.0  0.36364  0.45455  0.90909  1.0000
  Ag  Ag2198    1.0  0.36364  0.50000  0.95455  1.0000
  Ag  Ag2199    1.0  0.40909  0.45455  0.95455  1.0000
  Ag  Ag2200    1.0  0.40909  0.50000  0.90909  1.0000
  Ag  Ag2201    1.0  0.36364  0.54545  0.00000  1.0000
  Ag  Ag2202    1.0  0.36364  0.59091  0.04545  1.0000
  Ag  Ag2203    1.0  0.40909  0.54545  0.04545  1.0000
  Ag  Ag2204    1.0  0.40909  0.59091  0.00000  1.0000
  Ag  Ag2205    1.0  0.36364  0.54545  0.09091  1.0000
  Ag  Ag2206    1.0  0.36364  0.59091  0.13636  1.0000
  Ag  Ag2207    1.0  0.40909  0.54545  0.13636  1.0000
  Ag  Ag2208    1.0  0.40909  0.59091  0.09091  1.0000
  Ag  Ag2209    1.0  0.36364  0.54545  0.18182  1.0000
  Ag  Ag2210    1.0  0.36364  0.59091  0.22727  1.0000
  Ag  Ag2211    1.0  0.40909  0.54545  0.22727  1.0000
  Ag  Ag2212    1.0  0.40909  0.59091  0.18182  1.0000
  Ag  Ag2213    1.0  0.36364  0.54545  0.27273  1.0000
  Ag  Ag2214    1.0  0.36364  0.59091  0.31818  1.0000
  Ag  Ag2215    1.0  0.40909  0.54545  0.31818  1.0000
  Ag  Ag2216    1.0  0.40909  0.59091  0.27273  1.0000
  Ag  Ag2217    1.0  0.36364  0.54545  0.36364  1.0000
  Ag  Ag2218    1.0  0.36364  0.59091  0.40909  1.0000
  Ag  Ag2219    1.0  0.40909  0.54545  0.40909  1.0000
  Ag  Ag2220    1.0  0.40909  0.59091  0.36364  1.0000
  Ag  Ag2221    1.0  0.36364  0.54545  0.45455  1.0000
  Ag  Ag2222    1.0  0.36364  0.59091  0.50000  1.0000
  Ag  Ag2223    1.0  0.40909  0.54545  0.50000  1.0000
  Ag  Ag2224    1.0  0.40909  0.59091  0.45455  1.0000
  Ag  Ag2225    1.0  0.36364  0.54545  0.54545  1.0000
  Ag  Ag2226    1.0  0.36364  0.59091  0.59091  1.0000
  Ag  Ag2227    1.0  0.40909  0.54545  0.59091  1.0000
  Ag  Ag2228    1.0  0.40909  0.59091  0.54545  1.0000
  Ag  Ag2229    1.0  0.36364  0.54545  0.63636  1.0000
  Ag  Ag2230    1.0  0.36364  0.59091  0.68182  1.0000
  Ag  Ag2231    1.0  0.40909  0.54545  0.68182  1.0000
  Ag  Ag2232    1.0  0.40909  0.59091  0.63636  1.0000
  Ag  Ag2233    1.0  0.36364  0.54545  0.72727  1.0000
  Ag  Ag2234    1.0  0.36364  0.59091  0.77273  1.0000
  Ag  Ag2235    1.0  0.40909  0.54545  0.77273  1.0000
  Ag  Ag2236    1.0  0.40909  0.59091  0.72727  1.0000
  Ag  Ag2237    1.0  0.36364  0.54545  0.81818  1.0000
  Ag  Ag2238    1.0  0.36364  0.59091  0.86364  1.0000
  Ag  Ag2239    1.0  0.40909  0.54545  0.86364  1.0000
  Ag  Ag2240    1.0  0.40909  0.59091  0.81818  1.0000
  Ag  Ag2241    1.0  0.36364  0.54545  0.90909  1.0000
  Ag  Ag2242    1.0  0.36364  0.59091  0.95455  1.0000
  Ag  Ag2243    1.0  0.40909  0.54545  0.95455  1.0000
  Ag  Ag2244    1.0  0.40909  0.59091  0.90909  1.0000
  Ag  Ag2245    1.0  0.36364  0.63636  0.00000  1.0000
  Ag  Ag2246    1.0  0.36364  0.68182  0.04545  1.0000
  Ag  Ag2247    1.0  0.40909  0.63636  0.04545  1.0000
  Ag  Ag2248    1.0  0.40909  0.68182  0.00000  1.0000
  Ag  Ag2249    1.0  0.36364  0.63636  0.09091  1.0000
  Ag  Ag2250    1.0  0.36364  0.68182  0.13636  1.0000
  Ag  Ag2251    1.0  0.40909  0.63636  0.13636  1.0000
  Ag  Ag2252    1.0  0.40909  0.68182  0.09091  1.0000
  Ag  Ag2253    1.0  0.36364  0.63636  0.18182  1.0000
  Ag  Ag2254    1.0  0.36364  0.68182  0.22727  1.0000
  Ag  Ag2255    1.0  0.40909  0.63636  0.22727  1.0000
  Ag  Ag2256    1.0  0.40909  0.68182  0.18182  1.0000
  Ag  Ag2257    1.0  0.36364  0.63636  0.27273  1.0000
  Ag  Ag2258    1.0  0.36364  0.68182  0.31818  1.0000
  Ag  Ag2259    1.0  0.40909  0.63636  0.31818  1.0000
  Ag  Ag2260    1.0  0.40909  0.68182  0.27273  1.0000
  Ag  Ag2261    1.0  0.36364  0.63636  0.36364  1.0000
  Ag  Ag2262    1.0  0.36364  0.68182  0.40909  1.0000
  Ag  Ag2263    1.0  0.40909  0.63636  0.40909  1.0000
  Ag  Ag2264    1.0  0.40909  0.68182  0.36364  1.0000
  Ag  Ag2265    1.0  0.36364  0.63636  0.45455  1.0000
  Ag  Ag2266    1.0  0.36364  0.68182  0.50000  1.0000
  Ag  Ag2267    1.0  0.40909  0.63636  0.50000  1.0000
  Ag  Ag2268    1.0  0.40909  0.68182  0.45455  1.0000
  Ag  Ag2269    1.0  0.36364  0.63636  0.54545  1.0000
  Ag  Ag2270    1.0  0.36364  0.68182  0.59091  1.0000
  Ag  Ag2271    1.0  0.40909  0.63636  0.59091  1.0000
  Ag  Ag2272    1.0  0.40909  0.68182  0.54545  1.0000
  Ag  Ag2273    1.0  0.36364  0.63636  0.63636  1.0000
  Ag  Ag2274    1.0  0.36364  0.68182  0.68182  1.0000
  Ag  Ag2275    1.0  0.40909  0.63636  0.68182  1.0000
  Ag  Ag2276    1.0  0.40909  0.68182  0.63636  1.0000
  Ag  Ag2277    1.0  0.36364  0.63636  0.72727  1.0000
  Ag  Ag2278    1.0  0.36364  0.68182  0.77273  1.0000
  Ag  Ag2279    1.0  0.40909  0.63636  0.77273  1.0000
  Ag  Ag2280    1.0  0.40909  0.68182  0.72727  1.0000
  Ag  Ag2281    1.0  0.36364  0.63636  0.81818  1.0000
  Ag  Ag2282    1.0  0.36364  0.68182  0.86364  1.0000
  Ag  Ag2283    1.0  0.40909  0.63636  0.86364  1.0000
  Ag  Ag2284    1.0  0.40909  0.68182  0.81818  1.0000
  Ag  Ag2285    1.0  0.36364  0.63636  0.90909  1.0000
  Ag  Ag2286    1.0  0.36364  0.68182  0.95455  1.0000
  Ag  Ag2287    1.0  0.40909  0.63636  0.95455  1.0000
  Ag  Ag2288    1.0  0.40909  0.68182  0.90909  1.0000
  Ag  Ag2289    1.0  0.36364  0.72727  0.00000  1.0000
  Ag  Ag2290    1.0  0.36364  0.77273  0.04545  1.0000
  Ag  Ag2291    1.0  0.40909  0.72727  0.04545  1.0000
  Ag  Ag2292    1.0  0.40909  0.77273  0.00000  1.0000
  Ag  Ag2293    1.0  0.36364  0.72727  0.09091  1.0000
  Ag  Ag2294    1.0  0.36364  0.77273  0.13636  1.0000
  Ag  Ag2295    1.0  0.40909  0.72727  0.13636  1.0000
  Ag  Ag2296    1.0  0.40909  0.77273  0.09091  1.0000
  Ag  Ag2297    1.0  0.36364  0.72727  0.18182  1.0000
  Ag  Ag2298    1.0  0.36364  0.77273  0.22727  1.0000
  Ag  Ag2299    1.0  0.40909  0.72727  0.22727  1.0000
  Ag  Ag2300    1.0  0.40909  0.77273  0.18182  1.0000
  Ag  Ag2301    1.0  0.36364  0.72727  0.27273  1.0000
  Ag  Ag2302    1.0  0.36364  0.77273  0.31818  1.0000
  Ag  Ag2303    1.0  0.40909  0.72727  0.31818  1.0000
  Ag  Ag2304    1.0  0.40909  0.77273  0.27273  1.0000
  Ag  Ag2305    1.0  0.36364  0.72727  0.36364  1.0000
  Ag  Ag2306    1.0  0.36364  0.77273  0.40909  1.0000
  Ag  Ag2307    1.0  0.40909  0.72727  0.40909  1.0000
  Ag  Ag2308    1.0  0.40909  0.77273  0.36364  1.0000
  Ag  Ag2309    1.0  0.36364  0.72727  0.45455  1.0000
  Ag  Ag2310    1.0  0.36364  0.77273  0.50000  1.0000
  Ag  Ag2311    1.0  0.40909  0.72727  0.50000  1.0000
  Ag  Ag2312    1.0  0.40909  0.77273  0.45455  1.0000
  Ag  Ag2313    1.0  0.36364  0.72727  0.54545  1.0000
  Ag  Ag2314    1.0  0.36364  0.77273  0.59091  1.0000
  Ag  Ag2315    1.0  0.40909  0.72727  0.59091  1.0000
  Ag  Ag2316    1.0  0.40909  0.77273  0.54545  1.0000
  Ag  Ag2317    1.0  0.36364  0.72727  0.63636  1.0000
  Ag  Ag2318    1.0  0.36364  0.77273  0.68182  1.0000
  Ag  Ag2319    1.0  0.40909  0.72727  0.68182  1.0000
  Ag  Ag2320    1.0  0.40909  0.77273  0.63636  1.0000
  Ag  Ag2321    1.0  0.36364  0.72727  0.72727  1.0000
  Ag  Ag2322    1.0  0.36364  0.77273  0.77273  1.0000
  Ag  Ag2323    1.0  0.40909  0.72727  0.77273  1.0000
  Ag  Ag2324    1.0  0.40909  0.77273  0.72727  1.0000
  Ag  Ag2325    1.0  0.36364  0.72727  0.81818  1.0000
  Ag  Ag2326    1.0  0.36364  0.77273  0.86364  1.0000
  Ag  Ag2327    1.0  0.40909  0.72727  0.86364  1.0000
  Ag  Ag2328    1.0  0.40909  0.77273  0.81818  1.0000
  Ag  Ag2329    1.0  0.36364  0.72727  0.90909  1.0000
  Ag  Ag2330    1.0  0.36364  0.77273  0.95455  1.0000
  Ag  Ag2331    1.0  0.40909  0.72727  0.95455  1.0000
  Ag  Ag2332    1.0  0.40909  0.77273  0.90909  1.0000
  Ag  Ag2333    1.0  0.36364  0.81818  0.00000  1.0000
  Ag  Ag2334    1.0  0.36364  0.86364  0.04545  1.0000
  Ag  Ag2335    1.0  0.40909  0.81818  0.04545  1.0000
  Ag  Ag2336    1.0  0.40909  0.86364  0.00000  1.0000
  Ag  Ag2337    1.0  0.36364  0.81818  0.09091  1.0000
  Ag  Ag2338    1.0  0.36364  0.86364  0.13636  1.0000
  Ag  Ag2339    1.0  0.40909  0.81818  0.13636  1.0000
  Ag  Ag2340    1.0  0.40909  0.86364  0.09091  1.0000
  Ag  Ag2341    1.0  0.36364  0.81818  0.18182  1.0000
  Ag  Ag2342    1.0  0.36364  0.86364  0.22727  1.0000
  Ag  Ag2343    1.0  0.40909  0.81818  0.22727  1.0000
  Ag  Ag2344    1.0  0.40909  0.86364  0.18182  1.0000
  Ag  Ag2345    1.0  0.36364  0.81818  0.27273  1.0000
  Ag  Ag2346    1.0  0.36364  0.86364  0.31818  1.0000
  Ag  Ag2347    1.0  0.40909  0.81818  0.31818  1.0000
  Ag  Ag2348    1.0  0.40909  0.86364  0.27273  1.0000
  Ag  Ag2349    1.0  0.36364  0.81818  0.36364  1.0000
  Ag  Ag2350    1.0  0.36364  0.86364  0.40909  1.0000
  Ag  Ag2351    1.0  0.40909  0.81818  0.40909  1.0000
  Ag  Ag2352    1.0  0.40909  0.86364  0.36364  1.0000
  Ag  Ag2353    1.0  0.36364  0.81818  0.45455  1.0000
  Ag  Ag2354    1.0  0.36364  0.86364  0.50000  1.0000
  Ag  Ag2355    1.0  0.40909  0.81818  0.50000  1.0000
  Ag  Ag2356    1.0  0.40909  0.86364  0.45455  1.0000
  Ag  Ag2357    1.0  0.36364  0.81818  0.54545  1.0000
  Ag  Ag2358    1.0  0.36364  0.86364  0.59091  1.0000
  Ag  Ag2359    1.0  0.40909  0.81818  0.59091  1.0000
  Ag  Ag2360    1.0  0.40909  0.86364  0.54545  1.0000
  Ag  Ag2361    1.0  0.36364  0.81818  0.63636  1.0000
  Ag  Ag2362    1.0  0.36364  0.86364  0.68182  1.0000
  Ag  Ag2363    1.0  0.40909  0.81818  0.68182  1.0000
  Ag  Ag2364    1.0  0.40909  0.86364  0.63636  1.0000
  Ag  Ag2365    1.0  0.36364  0.81818  0.72727  1.0000
  Ag  Ag2366    1.0  0.36364  0.86364  0.77273  1.0000
  Ag  Ag2367    1.0  0.40909  0.81818  0.77273  1.0000
  Ag  Ag2368    1.0  0.40909  0.86364  0.72727  1.0000
  Ag  Ag2369    1.0  0.36364  0.81818  0.81818  1.0000
  Ag  Ag2370    1.0  0.36364  0.86364  0.86364  1.0000
  Ag  Ag2371    1.0  0.40909  0.81818  0.86364  1.0000
  Ag  Ag2372    1.0  0.40909  0.86364  0.81818  1.0000
  Ag  Ag2373    1.0  0.36364  0.81818  0.90909  1.0000
  Ag  Ag2374    1.0  0.36364  0.86364  0.95455  1.0000
  Ag  Ag2375    1.0  0.40909  0.81818  0.95455  1.0000
  Ag  Ag2376    1.0  0.40909  0.86364  0.90909  1.0000
  Ag  Ag2377    1.0  0.36364  0.90909  0.00000  1.0000
  Ag  Ag2378    1.0  0.36364  0.95455  0.04545  1.0000
  Ag  Ag2379    1.0  0.40909  0.90909  0.04545  1.0000
  Ag  Ag2380    1.0  0.40909  0.95455  0.00000  1.0000
  Ag  Ag2381    1.0  0.36364  0.90909  0.09091  1.0000
  Ag  Ag2382    1.0  0.36364  0.95455  0.13636  1.0000
  Ag  Ag2383    1.0  0.40909  0.90909  0.13636  1.0000
  Ag  Ag2384    1.0  0.40909  0.95455  0.09091  1.0000
  Ag  Ag2385    1.0  0.36364  0.90909  0.18182  1.0000
  Ag  Ag2386    1.0  0.36364  0.95455  0.22727  1.0000
  Ag  Ag2387    1.0  0.40909  0.90909  0.22727  1.0000
  Ag  Ag2388    1.0  0.40909  0.95455  0.18182  1.0000
  Ag  Ag2389    1.0  0.36364  0.90909  0.27273  1.0000
  Ag  Ag2390    1.0  0.36364  0.95455  0.31818  1.0000
  Ag  Ag2391    1.0  0.40909  0.90909  0.31818  1.0000
  Ag  Ag2392    1.0  0.40909  0.95455  0.27273  1.0000
  Ag  Ag2393    1.0  0.36364  0.90909  0.36364  1.0000
  Ag  Ag2394    1.0  0.36364  0.95455  0.40909  1.0000
  Ag  Ag2395    1.0  0.40909  0.90909  0.40909  1.0000
  Ag  Ag2396    1.0  0.40909  0.95455  0.36364  1.0000
  Ag  Ag2397    1.0  0.36364  0.90909  0.45455  1.0000
  Ag  Ag2398    1.0  0.36364  0.95455  0.50000  1.0000
  Ag  Ag2399    1.0  0.40909  0.90909  0.50000  1.0000
  Ag  Ag2400    1.0  0.40909  0.95455  0.45455  1.0000
  Ag  Ag2401    1.0  0.36364  0.90909  0.54545  1.0000
  Ag  Ag2402    1.0  0.36364  0.95455  0.59091  1.0000
  Ag  Ag2403    1.0  0.40909  0.90909  0.59091  1.0000
  Ag  Ag2404    1.0  0.40909  0.95455  0.54545  1.0000
  Ag  Ag2405    1.0  0.36364  0.90909  0.63636  1.0000
  Ag  Ag2406    1.0  0.36364  0.95455  0.68182  1.0000
  Ag  Ag2407    1.0  0.40909  0.90909  0.68182  1.0000
  Ag  Ag2408    1.0  0.40909  0.95455  0.63636  1.0000
  Ag  Ag2409    1.0  0.36364  0.90909  0.72727  1.0000
  Ag  Ag2410    1.0  0.36364  0.95455  0.77273  1.0000
  Ag  Ag2411    1.0  0.40909  0.90909  0.77273  1.0000
  Ag  Ag2412    1.0  0.40909  0.95455  0.72727  1.0000
  Ag  Ag2413    1.0  0.36364  0.90909  0.81818  1.0000
  Ag  Ag2414    1.0  0.36364  0.95455  0.86364  1.0000
  Ag  Ag2415    1.0  0.40909  0.90909  0.86364  1.0000
  Ag  Ag2416    1.0  0.40909  0.95455  0.81818  1.0000
  Ag  Ag2417    1.0  0.36364  0.90909  0.90909  1.0000
  Ag  Ag2418    1.0  0.36364  0.95455  0.95455  1.0000
  Ag  Ag2419    1.0  0.40909  0.90909  0.95455  1.0000
  Ag  Ag2420    1.0  0.40909  0.95455  0.90909  1.0000
  Ag  Ag2421    1.0  0.45455  0.00000  0.00000  1.0000
  Ag  Ag2422    1.0  0.45455  0.04545  0.04545  1.0000
  Ag  Ag2423    1.0  0.50000  0.00000  0.04545  1.0000
  Ag  Ag2424    1.0  0.50000  0.04545  0.00000  1.0000
  Ag  Ag2425    1.0  0.45455  0.00000  0.09091  1.0000
  Ag  Ag2426    1.0  0.45455  0.04545  0.13636  1.0000
  Ag  Ag2427    1.0  0.50000  0.00000  0.13636  1.0000
  Ag  Ag2428    1.0  0.50000  0.04545  0.09091  1.0000
  Ag  Ag2429    1.0  0.45455  0.00000  0.18182  1.0000
  Ag  Ag2430    1.0  0.45455  0.04545  0.22727  1.0000
  Ag  Ag2431    1.0  0.50000  0.00000  0.22727  1.0000
  Ag  Ag2432    1.0  0.50000  0.04545  0.18182  1.0000
  Ag  Ag2433    1.0  0.45455  0.00000  0.27273  1.0000
  Ag  Ag2434    1.0  0.45455  0.04545  0.31818  1.0000
  Ag  Ag2435    1.0  0.50000  0.00000  0.31818  1.0000
  Ag  Ag2436    1.0  0.50000  0.04545  0.27273  1.0000
  Ag  Ag2437    1.0  0.45455  0.00000  0.36364  1.0000
  Ag  Ag2438    1.0  0.45455  0.04545  0.40909  1.0000
  Ag  Ag2439    1.0  0.50000  0.00000  0.40909  1.0000
  Ag  Ag2440    1.0  0.50000  0.04545  0.36364  1.0000
  Ag  Ag2441    1.0  0.45455  0.00000  0.45455  1.0000
  Ag  Ag2442    1.0  0.45455  0.04545  0.50000  1.0000
  Ag  Ag2443    1.0  0.50000  0.00000  0.50000  1.0000
  Ag  Ag2444    1.0  0.50000  0.04545  0.45455  1.0000
  Ag  Ag2445    1.0  0.45455  0.00000  0.54545  1.0000
  Ag  Ag2446    1.0  0.45455  0.04545  0.59091  1.0000
  Ag  Ag2447    1.0  0.50000  0.00000  0.59091  1.0000
  Ag  Ag2448    1.0  0.50000  0.04545  0.54545  1.0000
  Ag  Ag2449    1.0  0.45455  0.00000  0.63636  1.0000
  Ag  Ag2450    1.0  0.45455  0.04545  0.68182  1.0000
  Ag  Ag2451    1.0  0.50000  0.00000  0.68182  1.0000
  Ag  Ag2452    1.0  0.50000  0.04545  0.63636  1.0000
  Ag  Ag2453    1.0  0.45455  0.00000  0.72727  1.0000
  Ag  Ag2454    1.0  0.45455  0.04545  0.77273  1.0000
  Ag  Ag2455    1.0  0.50000  0.00000  0.77273  1.0000
  Ag  Ag2456    1.0  0.50000  0.04545  0.72727  1.0000
  Ag  Ag2457    1.0  0.45455  0.00000  0.81818  1.0000
  Ag  Ag2458    1.0  0.45455  0.04545  0.86364  1.0000
  Ag  Ag2459    1.0  0.50000  0.00000  0.86364  1.0000
  Ag  Ag2460    1.0  0.50000  0.04545  0.81818  1.0000
  Ag  Ag2461    1.0  0.45455  0.00000  0.90909  1.0000
  Ag  Ag2462    1.0  0.45455  0.04545  0.95455  1.0000
  Ag  Ag2463    1.0  0.50000  0.00000  0.95455  1.0000
  Ag  Ag2464    1.0  0.50000  0.04545  0.90909  1.0000
  Ag  Ag2465    1.0  0.45455  0.09091  0.00000  1.0000
  Ag  Ag2466    1.0  0.45455  0.13636  0.04545  1.0000
  Ag  Ag2467    1.0  0.50000  0.09091  0.04545  1.0000
  Ag  Ag2468    1.0  0.50000  0.13636  0.00000  1.0000
  Ag  Ag2469    1.0  0.45455  0.09091  0.09091  1.0000
  Ag  Ag2470    1.0  0.45455  0.13636  0.13636  1.0000
  Ag  Ag2471    1.0  0.50000  0.09091  0.13636  1.0000
  Ag  Ag2472    1.0  0.50000  0.13636  0.09091  1.0000
  Ag  Ag2473    1.0  0.45455  0.09091  0.18182  1.0000
  Ag  Ag2474    1.0  0.45455  0.13636  0.22727  1.0000
  Ag  Ag2475    1.0  0.50000  0.09091  0.22727  1.0000
  Ag  Ag2476    1.0  0.50000  0.13636  0.18182  1.0000
  Ag  Ag2477    1.0  0.45455  0.09091  0.27273  1.0000
  Ag  Ag2478    1.0  0.45455  0.13636  0.31818  1.0000
  Ag  Ag2479    1.0  0.50000  0.09091  0.31818  1.0000
  Ag  Ag2480    1.0  0.50000  0.13636  0.27273  1.0000
  Ag  Ag2481    1.0  0.45455  0.09091  0.36364  1.0000
  Ag  Ag2482    1.0  0.45455  0.13636  0.40909  1.0000
  Ag  Ag2483    1.0  0.50000  0.09091  0.40909  1.0000
  Ag  Ag2484    1.0  0.50000  0.13636  0.36364  1.0000
  Ag  Ag2485    1.0  0.45455  0.09091  0.45455  1.0000
  Ag  Ag2486    1.0  0.45455  0.13636  0.50000  1.0000
  Ag  Ag2487    1.0  0.50000  0.09091  0.50000  1.0000
  Ag  Ag2488    1.0  0.50000  0.13636  0.45455  1.0000
  Ag  Ag2489    1.0  0.45455  0.09091  0.54545  1.0000
  Ag  Ag2490    1.0  0.45455  0.13636  0.59091  1.0000
  Ag  Ag2491    1.0  0.50000  0.09091  0.59091  1.0000
  Ag  Ag2492    1.0  0.50000  0.13636  0.54545  1.0000
  Ag  Ag2493    1.0  0.45455  0.09091  0.63636  1.0000
  Ag  Ag2494    1.0  0.45455  0.13636  0.68182  1.0000
  Ag  Ag2495    1.0  0.50000  0.09091  0.68182  1.0000
  Ag  Ag2496    1.0  0.50000  0.13636  0.63636  1.0000
  Ag  Ag2497    1.0  0.45455  0.09091  0.72727  1.0000
  Ag  Ag2498    1.0  0.45455  0.13636  0.77273  1.0000
  Ag  Ag2499    1.0  0.50000  0.09091  0.77273  1.0000
  Ag  Ag2500    1.0  0.50000  0.13636  0.72727  1.0000
  Ag  Ag2501    1.0  0.45455  0.09091  0.81818  1.0000
  Ag  Ag2502    1.0  0.45455  0.13636  0.86364  1.0000
  Ag  Ag2503    1.0  0.50000  0.09091  0.86364  1.0000
  Ag  Ag2504    1.0  0.50000  0.13636  0.81818  1.0000
  Ag  Ag2505    1.0  0.45455  0.09091  0.90909  1.0000
  Ag  Ag2506    1.0  0.45455  0.13636  0.95455  1.0000
  Ag  Ag2507    1.0  0.50000  0.09091  0.95455  1.0000
  Ag  Ag2508    1.0  0.50000  0.13636  0.90909  1.0000
  Ag  Ag2509    1.0  0.45455  0.18182  0.00000  1.0000
  Ag  Ag2510    1.0  0.45455  0.22727  0.04545  1.0000
  Ag  Ag2511    1.0  0.50000  0.18182  0.04545  1.0000
  Ag  Ag2512    1.0  0.50000  0.22727  0.00000  1.0000
  Ag  Ag2513    1.0  0.45455  0.18182  0.09091  1.0000
  Ag  Ag2514    1.0  0.45455  0.22727  0.13636  1.0000
  Ag  Ag2515    1.0  0.50000  0.18182  0.13636  1.0000
  Ag  Ag2516    1.0  0.50000  0.22727  0.09091  1.0000
  Ag  Ag2517    1.0  0.45455  0.18182  0.18182  1.0000
  Ag  Ag2518    1.0  0.45455  0.22727  0.22727  1.0000
  Ag  Ag2519    1.0  0.50000  0.18182  0.22727  1.0000
  Ag  Ag2520    1.0  0.50000  0.22727  0.18182  1.0000
  Ag  Ag2521    1.0  0.45455  0.18182  0.27273  1.0000
  Ag  Ag2522    1.0  0.45455  0.22727  0.31818  1.0000
  Ag  Ag2523    1.0  0.50000  0.18182  0.31818  1.0000
  Ag  Ag2524    1.0  0.50000  0.22727  0.27273  1.0000
  Ag  Ag2525    1.0  0.45455  0.18182  0.36364  1.0000
  Ag  Ag2526    1.0  0.45455  0.22727  0.40909  1.0000
  Ag  Ag2527    1.0  0.50000  0.18182  0.40909  1.0000
  Ag  Ag2528    1.0  0.50000  0.22727  0.36364  1.0000
  Ag  Ag2529    1.0  0.45455  0.18182  0.45455  1.0000
  Ag  Ag2530    1.0  0.45455  0.22727  0.50000  1.0000
  Ag  Ag2531    1.0  0.50000  0.18182  0.50000  1.0000
  Ag  Ag2532    1.0  0.50000  0.22727  0.45455  1.0000
  Ag  Ag2533    1.0  0.45455  0.18182  0.54545  1.0000
  Ag  Ag2534    1.0  0.45455  0.22727  0.59091  1.0000
  Ag  Ag2535    1.0  0.50000  0.18182  0.59091  1.0000
  Ag  Ag2536    1.0  0.50000  0.22727  0.54545  1.0000
  Ag  Ag2537    1.0  0.45455  0.18182  0.63636  1.0000
  Ag  Ag2538    1.0  0.45455  0.22727  0.68182  1.0000
  Ag  Ag2539    1.0  0.50000  0.18182  0.68182  1.0000
  Ag  Ag2540    1.0  0.50000  0.22727  0.63636  1.0000
  Ag  Ag2541    1.0  0.45455  0.18182  0.72727  1.0000
  Ag  Ag2542    1.0  0.45455  0.22727  0.77273  1.0000
  Ag  Ag2543    1.0  0.50000  0.18182  0.77273  1.0000
  Ag  Ag2544    1.0  0.50000  0.22727  0.72727  1.0000
  Ag  Ag2545    1.0  0.45455  0.18182  0.81818  1.0000
  Ag  Ag2546    1.0  0.45455  0.22727  0.86364  1.0000
  Ag  Ag2547    1.0  0.50000  0.18182  0.86364  1.0000
  Ag  Ag2548    1.0  0.50000  0.22727  0.81818  1.0000
  Ag  Ag2549    1.0  0.45455  0.18182  0.90909  1.0000
  Ag  Ag2550    1.0  0.45455  0.22727  0.95455  1.0000
  Ag  Ag2551    1.0  0.50000  0.18182  0.95455  1.0000
  Ag  Ag2552    1.0  0.50000  0.22727  0.90909  1.0000
  Ag  Ag2553    1.0  0.45455  0.27273  0.00000  1.0000
  Ag  Ag2554    1.0  0.45455  0.31818  0.04545  1.0000
  Ag  Ag2555    1.0  0.50000  0.27273  0.04545  1.0000
  Ag  Ag2556    1.0  0.50000  0.31818  0.00000  1.0000
  Ag  Ag2557    1.0  0.45455  0.27273  0.09091  1.0000
  Ag  Ag2558    1.0  0.45455  0.31818  0.13636  1.0000
  Ag  Ag2559    1.0  0.50000  0.27273  0.13636  1.0000
  Ag  Ag2560    1.0  0.50000  0.31818  0.09091  1.0000
  Ag  Ag2561    1.0  0.45455  0.27273  0.18182  1.0000
  Ag  Ag2562    1.0  0.45455  0.31818  0.22727  1.0000
  Ag  Ag2563    1.0  0.50000  0.27273  0.22727  1.0000
  Ag  Ag2564    1.0  0.50000  0.31818  0.18182  1.0000
  Ag  Ag2565    1.0  0.45455  0.27273  0.27273  1.0000
  Ag  Ag2566    1.0  0.45455  0.31818  0.31818  1.0000
  Ag  Ag2567    1.0  0.50000  0.27273  0.31818  1.0000
  Ag  Ag2568    1.0  0.50000  0.31818  0.27273  1.0000
  Ag  Ag2569    1.0  0.45455  0.27273  0.36364  1.0000
  Ag  Ag2570    1.0  0.45455  0.31818  0.40909  1.0000
  Ag  Ag2571    1.0  0.50000  0.27273  0.40909  1.0000
  Ag  Ag2572    1.0  0.50000  0.31818  0.36364  1.0000
  Ag  Ag2573    1.0  0.45455  0.27273  0.45455  1.0000
  Ag  Ag2574    1.0  0.45455  0.31818  0.50000  1.0000
  Ag  Ag2575    1.0  0.50000  0.27273  0.50000  1.0000
  Ag  Ag2576    1.0  0.50000  0.31818  0.45455  1.0000
  Ag  Ag2577    1.0  0.45455  0.27273  0.54545  1.0000
  Ag  Ag2578    1.0  0.45455  0.31818  0.59091  1.0000
  Ag  Ag2579    1.0  0.50000  0.27273  0.59091  1.0000
  Ag  Ag2580    1.0  0.50000  0.31818  0.54545  1.0000
  Ag  Ag2581    1.0  0.45455  0.27273  0.63636  1.0000
  Ag  Ag2582    1.0  0.45455  0.31818  0.68182  1.0000
  Ag  Ag2583    1.0  0.50000  0.27273  0.68182  1.0000
  Ag  Ag2584    1.0  0.50000  0.31818  0.63636  1.0000
  Ag  Ag2585    1.0  0.45455  0.27273  0.72727  1.0000
  Ag  Ag2586    1.0  0.45455  0.31818  0.77273  1.0000
  Ag  Ag2587    1.0  0.50000  0.27273  0.77273  1.0000
  Ag  Ag2588    1.0  0.50000  0.31818  0.72727  1.0000
  Ag  Ag2589    1.0  0.45455  0.27273  0.81818  1.0000
  Ag  Ag2590    1.0  0.45455  0.31818  0.86364  1.0000
  Ag  Ag2591    1.0  0.50000  0.27273  0.86364  1.0000
  Ag  Ag2592    1.0  0.50000  0.31818  0.81818  1.0000
  Ag  Ag2593    1.0  0.45455  0.27273  0.90909  1.0000
  Ag  Ag2594    1.0  0.45455  0.31818  0.95455  1.0000
  Ag  Ag2595    1.0  0.50000  0.27273  0.95455  1.0000
  Ag  Ag2596    1.0  0.50000  0.31818  0.90909  1.0000
  Ag  Ag2597    1.0  0.45455  0.36364  0.00000  1.0000
  Ag  Ag2598    1.0  0.45455  0.40909  0.04545  1.0000
  Ag  Ag2599    1.0  0.50000  0.36364  0.04545  1.0000
  Ag  Ag2600    1.0  0.50000  0.40909  0.00000  1.0000
  Ag  Ag2601    1.0  0.45455  0.36364  0.09091  1.0000
  Ag  Ag2602    1.0  0.45455  0.40909  0.13636  1.0000
  Ag  Ag2603    1.0  0.50000  0.36364  0.13636  1.0000
  Ag  Ag2604    1.0  0.50000  0.40909  0.09091  1.0000
  Ag  Ag2605    1.0  0.45455  0.36364  0.18182  1.0000
  Ag  Ag2606    1.0  0.45455  0.40909  0.22727  1.0000
  Ag  Ag2607    1.0  0.50000  0.36364  0.22727  1.0000
  Ag  Ag2608    1.0  0.50000  0.40909  0.18182  1.0000
  Ag  Ag2609    1.0  0.45455  0.36364  0.27273  1.0000
  Ag  Ag2610    1.0  0.45455  0.40909  0.31818  1.0000
  Ag  Ag2611    1.0  0.50000  0.36364  0.31818  1.0000
  Ag  Ag2612    1.0  0.50000  0.40909  0.27273  1.0000
  Ag  Ag2613    1.0  0.45455  0.36364  0.36364  1.0000
  Ag  Ag2614    1.0  0.45455  0.40909  0.40909  1.0000
  Ag  Ag2615    1.0  0.50000  0.36364  0.40909  1.0000
  Ag  Ag2616    1.0  0.50000  0.40909  0.36364  1.0000
  Ag  Ag2617    1.0  0.45455  0.36364  0.45455  1.0000
  Ag  Ag2618    1.0  0.45455  0.40909  0.50000  1.0000
  Ag  Ag2619    1.0  0.50000  0.36364  0.50000  1.0000
  Ag  Ag2620    1.0  0.50000  0.40909  0.45455  1.0000
  Ag  Ag2621    1.0  0.45455  0.36364  0.54545  1.0000
  Ag  Ag2622    1.0  0.45455  0.40909  0.59091  1.0000
  Ag  Ag2623    1.0  0.50000  0.36364  0.59091  1.0000
  Ag  Ag2624    1.0  0.50000  0.40909  0.54545  1.0000
  Ag  Ag2625    1.0  0.45455  0.36364  0.63636  1.0000
  Ag  Ag2626    1.0  0.45455  0.40909  0.68182  1.0000
  Ag  Ag2627    1.0  0.50000  0.36364  0.68182  1.0000
  Ag  Ag2628    1.0  0.50000  0.40909  0.63636  1.0000
  Ag  Ag2629    1.0  0.45455  0.36364  0.72727  1.0000
  Ag  Ag2630    1.0  0.45455  0.40909  0.77273  1.0000
  Ag  Ag2631    1.0  0.50000  0.36364  0.77273  1.0000
  Ag  Ag2632    1.0  0.50000  0.40909  0.72727  1.0000
  Ag  Ag2633    1.0  0.45455  0.36364  0.81818  1.0000
  Ag  Ag2634    1.0  0.45455  0.40909  0.86364  1.0000
  Ag  Ag2635    1.0  0.50000  0.36364  0.86364  1.0000
  Ag  Ag2636    1.0  0.50000  0.40909  0.81818  1.0000
  Ag  Ag2637    1.0  0.45455  0.36364  0.90909  1.0000
  Ag  Ag2638    1.0  0.45455  0.40909  0.95455  1.0000
  Ag  Ag2639    1.0  0.50000  0.36364  0.95455  1.0000
  Ag  Ag2640    1.0  0.50000  0.40909  0.90909  1.0000
  Ag  Ag2641    1.0  0.45455  0.45455  0.00000  1.0000
  Ag  Ag2642    1.0  0.45455  0.50000  0.04545  1.0000
  Ag  Ag2643    1.0  0.50000  0.45455  0.04545  1.0000
  Ag  Ag2644    1.0  0.50000  0.50000  0.00000  1.0000
  Ag  Ag2645    1.0  0.45455  0.45455  0.09091  1.0000
  Ag  Ag2646    1.0  0.45455  0.50000  0.13636  1.0000
  Ag  Ag2647    1.0  0.50000  0.45455  0.13636  1.0000
  Ag  Ag2648    1.0  0.50000  0.50000  0.09091  1.0000
  Ag  Ag2649    1.0  0.45455  0.45455  0.18182  1.0000
  Ag  Ag2650    1.0  0.45455  0.50000  0.22727  1.0000
  Ag  Ag2651    1.0  0.50000  0.45455  0.22727  1.0000
  Ag  Ag2652    1.0  0.50000  0.50000  0.18182  1.0000
  Ag  Ag2653    1.0  0.45455  0.45455  0.27273  1.0000
  Ag  Ag2654    1.0  0.45455  0.50000  0.31818  1.0000
  Ag  Ag2655    1.0  0.50000  0.45455  0.31818  1.0000
  Ag  Ag2656    1.0  0.50000  0.50000  0.27273  1.0000
  Ag  Ag2657    1.0  0.45455  0.45455  0.36364  1.0000
  Ag  Ag2658    1.0  0.45455  0.50000  0.40909  1.0000
  Ag  Ag2659    1.0  0.50000  0.45455  0.40909  1.0000
  Ag  Ag2660    1.0  0.50000  0.50000  0.36364  1.0000
  Ag  Ag2661    1.0  0.45455  0.45455  0.45455  1.0000
  Ag  Ag2662    1.0  0.45455  0.50000  0.50000  1.0000
  Ag  Ag2663    1.0  0.50000  0.45455  0.50000  1.0000
  Ag  Ag2664    1.0  0.50000  0.50000  0.45455  1.0000
  Ag  Ag2665    1.0  0.45455  0.45455  0.54545  1.0000
  Ag  Ag2666    1.0  0.45455  0.50000  0.59091  1.0000
  Ag  Ag2667    1.0  0.50000  0.45455  0.59091  1.0000
  Ag  Ag2668    1.0  0.50000  0.50000  0.54545  1.0000
  Ag  Ag2669    1.0  0.45455  0.45455  0.63636  1.0000
  Ag  Ag2670    1.0  0.45455  0.50000  0.68182  1.0000
  Ag  Ag2671    1.0  0.50000  0.45455  0.68182  1.0000
  Ag  Ag2672    1.0  0.50000  0.50000  0.63636  1.0000
  Ag  Ag2673    1.0  0.45455  0.45455  0.72727  1.0000
  Ag  Ag2674    1.0  0.45455  0.50000  0.77273  1.0000
  Ag  Ag2675    1.0  0.50000  0.45455  0.77273  1.0000
  Ag  Ag2676    1.0  0.50000  0.50000  0.72727  1.0000
  Ag  Ag2677    1.0  0.45455  0.45455  0.81818  1.0000
  Ag  Ag2678    1.0  0.45455  0.50000  0.86364  1.0000
  Ag  Ag2679    1.0  0.50000  0.45455  0.86364  1.0000
  Ag  Ag2680    1.0  0.50000  0.50000  0.81818  1.0000
  Ag  Ag2681    1.0  0.45455  0.45455  0.90909  1.0000
  Ag  Ag2682    1.0  0.45455  0.50000  0.95455  1.0000
  Ag  Ag2683    1.0  0.50000  0.45455  0.95455  1.0000
  Ag  Ag2684    1.0  0.50000  0.50000  0.90909  1.0000
  Ag  Ag2685    1.0  0.45455  0.54545  0.00000  1.0000
  Ag  Ag2686    1.0  0.45455  0.59091  0.04545  1.0000
  Ag  Ag2687    1.0  0.50000  0.54545  0.04545  1.0000
  Ag  Ag2688    1.0  0.50000  0.59091  0.00000  1.0000
  Ag  Ag2689    1.0  0.45455  0.54545  0.09091  1.0000
  Ag  Ag2690    1.0  0.45455  0.59091  0.13636  1.0000
  Ag  Ag2691    1.0  0.50000  0.54545  0.13636  1.0000
  Ag  Ag2692    1.0  0.50000  0.59091  0.09091  1.0000
  Ag  Ag2693    1.0  0.45455  0.54545  0.18182  1.0000
  Ag  Ag2694    1.0  0.45455  0.59091  0.22727  1.0000
  Ag  Ag2695    1.0  0.50000  0.54545  0.22727  1.0000
  Ag  Ag2696    1.0  0.50000  0.59091  0.18182  1.0000
  Ag  Ag2697    1.0  0.45455  0.54545  0.27273  1.0000
  Ag  Ag2698    1.0  0.45455  0.59091  0.31818  1.0000
  Ag  Ag2699    1.0  0.50000  0.54545  0.31818  1.0000
  Ag  Ag2700    1.0  0.50000  0.59091  0.27273  1.0000
  Ag  Ag2701    1.0  0.45455  0.54545  0.36364  1.0000
  Ag  Ag2702    1.0  0.45455  0.59091  0.40909  1.0000
  Ag  Ag2703    1.0  0.50000  0.54545  0.40909  1.0000
  Ag  Ag2704    1.0  0.50000  0.59091  0.36364  1.0000
  Ag  Ag2705    1.0  0.45455  0.54545  0.45455  1.0000
  Ag  Ag2706    1.0  0.45455  0.59091  0.50000  1.0000
  Ag  Ag2707    1.0  0.50000  0.54545  0.50000  1.0000
  Ag  Ag2708    1.0  0.50000  0.59091  0.45455  1.0000
  Ag  Ag2709    1.0  0.45455  0.54545  0.54545  1.0000
  Ag  Ag2710    1.0  0.45455  0.59091  0.59091  1.0000
  Ag  Ag2711    1.0  0.50000  0.54545  0.59091  1.0000
  Ag  Ag2712    1.0  0.50000  0.59091  0.54545  1.0000
  Ag  Ag2713    1.0  0.45455  0.54545  0.63636  1.0000
  Ag  Ag2714    1.0  0.45455  0.59091  0.68182  1.0000
  Ag  Ag2715    1.0  0.50000  0.54545  0.68182  1.0000
  Ag  Ag2716    1.0  0.50000  0.59091  0.63636  1.0000
  Ag  Ag2717    1.0  0.45455  0.54545  0.72727  1.0000
  Ag  Ag2718    1.0  0.45455  0.59091  0.77273  1.0000
  Ag  Ag2719    1.0  0.50000  0.54545  0.77273  1.0000
  Ag  Ag2720    1.0  0.50000  0.59091  0.72727  1.0000
  Ag  Ag2721    1.0  0.45455  0.54545  0.81818  1.0000
  Ag  Ag2722    1.0  0.45455  0.59091  0.86364  1.0000
  Ag  Ag2723    1.0  0.50000  0.54545  0.86364  1.0000
  Ag  Ag2724    1.0  0.50000  0.59091  0.81818  1.0000
  Ag  Ag2725    1.0  0.45455  0.54545  0.90909  1.0000
  Ag  Ag2726    1.0  0.45455  0.59091  0.95455  1.0000
  Ag  Ag2727    1.0  0.50000  0.54545  0.95455  1.0000
  Ag  Ag2728    1.0  0.50000  0.59091  0.90909  1.0000
  Ag  Ag2729    1.0  0.45455  0.63636  0.00000  1.0000
  Ag  Ag2730    1.0  0.45455  0.68182  0.04545  1.0000
  Ag  Ag2731    1.0  0.50000  0.63636  0.04545  1.0000
  Ag  Ag2732    1.0  0.50000  0.68182  0.00000  1.0000
  Ag  Ag2733    1.0  0.45455  0.63636  0.09091  1.0000
  Ag  Ag2734    1.0  0.45455  0.68182  0.13636  1.0000
  Ag  Ag2735    1.0  0.50000  0.63636  0.13636  1.0000
  Ag  Ag2736    1.0  0.50000  0.68182  0.09091  1.0000
  Ag  Ag2737    1.0  0.45455  0.63636  0.18182  1.0000
  Ag  Ag2738    1.0  0.45455  0.68182  0.22727  1.0000
  Ag  Ag2739    1.0  0.50000  0.63636  0.22727  1.0000
  Ag  Ag2740    1.0  0.50000  0.68182  0.18182  1.0000
  Ag  Ag2741    1.0  0.45455  0.63636  0.27273  1.0000
  Ag  Ag2742    1.0  0.45455  0.68182  0.31818  1.0000
  Ag  Ag2743    1.0  0.50000  0.63636  0.31818  1.0000
  Ag  Ag2744    1.0  0.50000  0.68182  0.27273  1.0000
  Ag  Ag2745    1.0  0.45455  0.63636  0.36364  1.0000
  Ag  Ag2746    1.0  0.45455  0.68182  0.40909  1.0000
  Ag  Ag2747    1.0  0.50000  0.63636  0.40909  1.0000
  Ag  Ag2748    1.0  0.50000  0.68182  0.36364  1.0000
  Ag  Ag2749    1.0  0.45455  0.63636  0.45455  1.0000
  Ag  Ag2750    1.0  0.45455  0.68182  0.50000  1.0000
  Ag  Ag2751    1.0  0.50000  0.63636  0.50000  1.0000
  Ag  Ag2752    1.0  0.50000  0.68182  0.45455  1.0000
  Ag  Ag2753    1.0  0.45455  0.63636  0.54545  1.0000
  Ag  Ag2754    1.0  0.45455  0.68182  0.59091  1.0000
  Ag  Ag2755    1.0  0.50000  0.63636  0.59091  1.0000
  Ag  Ag2756    1.0  0.50000  0.68182  0.54545  1.0000
  Ag  Ag2757    1.0  0.45455  0.63636  0.63636  1.0000
  Ag  Ag2758    1.0  0.45455  0.68182  0.68182  1.0000
  Ag  Ag2759    1.0  0.50000  0.63636  0.68182  1.0000
  Ag  Ag2760    1.0  0.50000  0.68182  0.63636  1.0000
  Ag  Ag2761    1.0  0.45455  0.63636  0.72727  1.0000
  Ag  Ag2762    1.0  0.45455  0.68182  0.77273  1.0000
  Ag  Ag2763    1.0  0.50000  0.63636  0.77273  1.0000
  Ag  Ag2764    1.0  0.50000  0.68182  0.72727  1.0000
  Ag  Ag2765    1.0  0.45455  0.63636  0.81818  1.0000
  Ag  Ag2766    1.0  0.45455  0.68182  0.86364  1.0000
  Ag  Ag2767    1.0  0.50000  0.63636  0.86364  1.0000
  Ag  Ag2768    1.0  0.50000  0.68182  0.81818  1.0000
  Ag  Ag2769    1.0  0.45455  0.63636  0.90909  1.0000
  Ag  Ag2770    1.0  0.45455  0.68182  0.95455  1.0000
  Ag  Ag2771    1.0  0.50000  0.63636  0.95455  1.0000
  Ag  Ag2772    1.0  0.50000  0.68182  0.90909  1.0000
  Ag  Ag2773    1.0  0.45455  0.72727  0.00000  1.0000
  Ag  Ag2774    1.0  0.45455  0.77273  0.04545  1.0000
  Ag  Ag2775    1.0  0.50000  0.72727  0.04545  1.0000
  Ag  Ag2776    1.0  0.50000  0.77273  0.00000  1.0000
  Ag  Ag2777    1.0  0.45455  0.72727  0.09091  1.0000
  Ag  Ag2778    1.0  0.45455  0.77273  0.13636  1.0000
  Ag  Ag2779    1.0  0.50000  0.72727  0.13636  1.0000
  Ag  Ag2780    1.0  0.50000  0.77273  0.09091  1.0000
  Ag  Ag2781    1.0  0.45455  0.72727  0.18182  1.0000
  Ag  Ag2782    1.0  0.45455  0.77273  0.22727  1.0000
  Ag  Ag2783    1.0  0.50000  0.72727  0.22727  1.0000
  Ag  Ag2784    1.0  0.50000  0.77273  0.18182  1.0000
  Ag  Ag2785    1.0  0.45455  0.72727  0.27273  1.0000
  Ag  Ag2786    1.0  0.45455  0.77273  0.31818  1.0000
  Ag  Ag2787    1.0  0.50000  0.72727  0.31818  1.0000
  Ag  Ag2788    1.0  0.50000  0.77273  0.27273  1.0000
  Ag  Ag2789    1.0  0.45455  0.72727  0.36364  1.0000
  Ag  Ag2790    1.0  0.45455  0.77273  0.40909  1.0000
  Ag  Ag2791    1.0  0.50000  0.72727  0.40909  1.0000
  Ag  Ag2792    1.0  0.50000  0.77273  0.36364  1.0000
  Ag  Ag2793    1.0  0.45455  0.72727  0.45455  1.0000
  Ag  Ag2794    1.0  0.45455  0.77273  0.50000  1.0000
  Ag  Ag2795    1.0  0.50000  0.72727  0.50000  1.0000
  Ag  Ag2796    1.0  0.50000  0.77273  0.45455  1.0000
  Ag  Ag2797    1.0  0.45455  0.72727  0.54545  1.0000
  Ag  Ag2798    1.0  0.45455  0.77273  0.59091  1.0000
  Ag  Ag2799    1.0  0.50000  0.72727  0.59091  1.0000
  Ag  Ag2800    1.0  0.50000  0.77273  0.54545  1.0000
  Ag  Ag2801    1.0  0.45455  0.72727  0.63636  1.0000
  Ag  Ag2802    1.0  0.45455  0.77273  0.68182  1.0000
  Ag  Ag2803    1.0  0.50000  0.72727  0.68182  1.0000
  Ag  Ag2804    1.0  0.50000  0.77273  0.63636  1.0000
  Ag  Ag2805    1.0  0.45455  0.72727  0.72727  1.0000
  Ag  Ag2806    1.0  0.45455  0.77273  0.77273  1.0000
  Ag  Ag2807    1.0  0.50000  0.72727  0.77273  1.0000
  Ag  Ag2808    1.0  0.50000  0.77273  0.72727  1.0000
  Ag  Ag2809    1.0  0.45455  0.72727  0.81818  1.0000
  Ag  Ag2810    1.0  0.45455  0.77273  0.86364  1.0000
  Ag  Ag2811    1.0  0.50000  0.72727  0.86364  1.0000
  Ag  Ag2812    1.0  0.50000  0.77273  0.81818  1.0000
  Ag  Ag2813    1.0  0.45455  0.72727  0.90909  1.0000
  Ag  Ag2814    1.0  0.45455  0.77273  0.95455  1.0000
  Ag  Ag2815    1.0  0.50000  0.72727  0.95455  1.0000
  Ag  Ag2816    1.0  0.50000  0.77273  0.90909  1.0000
  Ag  Ag2817    1.0  0.45455  0.81818  0.00000  1.0000
  Ag  Ag2818    1.0  0.45455  0.86364  0.04545  1.0000
  Ag  Ag2819    1.0  0.50000  0.81818  0.04545  1.0000
  Ag  Ag2820    1.0  0.50000  0.86364  0.00000  1.0000
  Ag  Ag2821    1.0  0.45455  0.81818  0.09091  1.0000
  Ag  Ag2822    1.0  0.45455  0.86364  0.13636  1.0000
  Ag  Ag2823    1.0  0.50000  0.81818  0.13636  1.0000
  Ag  Ag2824    1.0  0.50000  0.86364  0.09091  1.0000
  Ag  Ag2825    1.0  0.45455  0.81818  0.18182  1.0000
  Ag  Ag2826    1.0  0.45455  0.86364  0.22727  1.0000
  Ag  Ag2827    1.0  0.50000  0.81818  0.22727  1.0000
  Ag  Ag2828    1.0  0.50000  0.86364  0.18182  1.0000
  Ag  Ag2829    1.0  0.45455  0.81818  0.27273  1.0000
  Ag  Ag2830    1.0  0.45455  0.86364  0.31818  1.0000
  Ag  Ag2831    1.0  0.50000  0.81818  0.31818  1.0000
  Ag  Ag2832    1.0  0.50000  0.86364  0.27273  1.0000
  Ag  Ag2833    1.0  0.45455  0.81818  0.36364  1.0000
  Ag  Ag2834    1.0  0.45455  0.86364  0.40909  1.0000
  Ag  Ag2835    1.0  0.50000  0.81818  0.40909  1.0000
  Ag  Ag2836    1.0  0.50000  0.86364  0.36364  1.0000
  Ag  Ag2837    1.0  0.45455  0.81818  0.45455  1.0000
  Ag  Ag2838    1.0  0.45455  0.86364  0.50000  1.0000
  Ag  Ag2839    1.0  0.50000  0.81818  0.50000  1.0000
  Ag  Ag2840    1.0  0.50000  0.86364  0.45455  1.0000
  Ag  Ag2841    1.0  0.45455  0.81818  0.54545  1.0000
  Ag  Ag2842    1.0  0.45455  0.86364  0.59091  1.0000
  Ag  Ag2843    1.0  0.50000  0.81818  0.59091  1.0000
  Ag  Ag2844    1.0  0.50000  0.86364  0.54545  1.0000
  Ag  Ag2845    1.0  0.45455  0.81818  0.63636  1.0000
  Ag  Ag2846    1.0  0.45455  0.86364  0.68182  1.0000
  Ag  Ag2847    1.0  0.50000  0.81818  0.68182  1.0000
  Ag  Ag2848    1.0  0.50000  0.86364  0.63636  1.0000
  Ag  Ag2849    1.0  0.45455  0.81818  0.72727  1.0000
  Ag  Ag2850    1.0  0.45455  0.86364  0.77273  1.0000
  Ag  Ag2851    1.0  0.50000  0.81818  0.77273  1.0000
  Ag  Ag2852    1.0  0.50000  0.86364  0.72727  1.0000
  Ag  Ag2853    1.0  0.45455  0.81818  0.81818  1.0000
  Ag  Ag2854    1.0  0.45455  0.86364  0.86364  1.0000
  Ag  Ag2855    1.0  0.50000  0.81818  0.86364  1.0000
  Ag  Ag2856    1.0  0.50000  0.86364  0.81818  1.0000
  Ag  Ag2857    1.0  0.45455  0.81818  0.90909  1.0000
  Ag  Ag2858    1.0  0.45455  0.86364  0.95455  1.0000
  Ag  Ag2859    1.0  0.50000  0.81818  0.95455  1.0000
  Ag  Ag2860    1.0  0.50000  0.86364  0.90909  1.0000
  Ag  Ag2861    1.0  0.45455  0.90909  0.00000  1.0000
  Ag  Ag2862    1.0  0.45455  0.95455  0.04545  1.0000
  Ag  Ag2863    1.0  0.50000  0.90909  0.04545  1.0000
  Ag  Ag2864    1.0  0.50000  0.95455  0.00000  1.0000
  Ag  Ag2865    1.0  0.45455  0.90909  0.09091  1.0000
  Ag  Ag2866    1.0  0.45455  0.95455  0.13636  1.0000
  Ag  Ag2867    1.0  0.50000  0.90909  0.13636  1.0000
  Ag  Ag2868    1.0  0.50000  0.95455  0.09091  1.0000
  Ag  Ag2869    1.0  0.45455  0.90909  0.18182  1.0000
  Ag  Ag2870    1.0  0.45455  0.95455  0.22727  1.0000
  Ag  Ag2871    1.0  0.50000  0.90909  0.22727  1.0000
  Ag  Ag2872    1.0  0.50000  0.95455  0.18182  1.0000
  Ag  Ag2873    1.0  0.45455  0.90909  0.27273  1.0000
  Ag  Ag2874    1.0  0.45455  0.95455  0.31818  1.0000
  Ag  Ag2875    1.0  0.50000  0.90909  0.31818  1.0000
  Ag  Ag2876    1.0  0.50000  0.95455  0.27273  1.0000
  Ag  Ag2877    1.0  0.45455  0.90909  0.36364  1.0000
  Ag  Ag2878    1.0  0.45455  0.95455  0.40909  1.0000
  Ag  Ag2879    1.0  0.50000  0.90909  0.40909  1.0000
  Ag  Ag2880    1.0  0.50000  0.95455  0.36364  1.0000
  Ag  Ag2881    1.0  0.45455  0.90909  0.45455  1.0000
  Ag  Ag2882    1.0  0.45455  0.95455  0.50000  1.0000
  Ag  Ag2883    1.0  0.50000  0.90909  0.50000  1.0000
  Ag  Ag2884    1.0  0.50000  0.95455  0.45455  1.0000
  Ag  Ag2885    1.0  0.45455  0.90909  0.54545  1.0000
  Ag  Ag2886    1.0  0.45455  0.95455  0.59091  1.0000
  Ag  Ag2887    1.0  0.50000  0.90909  0.59091  1.0000
  Ag  Ag2888    1.0  0.50000  0.95455  0.54545  1.0000
  Ag  Ag2889    1.0  0.45455  0.90909  0.63636  1.0000
  Ag  Ag2890    1.0  0.45455  0.95455  0.68182  1.0000
  Ag  Ag2891    1.0  0.50000  0.90909  0.68182  1.0000
  Ag  Ag2892    1.0  0.50000  0.95455  0.63636  1.0000
  Ag  Ag2893    1.0  0.45455  0.90909  0.72727  1.0000
  Ag  Ag2894    1.0  0.45455  0.95455  0.77273  1.0000
  Ag  Ag2895    1.0  0.50000  0.90909  0.77273  1.0000
  Ag  Ag2896    1.0  0.50000  0.95455  0.72727  1.0000
  Ag  Ag2897    1.0  0.45455  0.90909  0.81818  1.0000
  Ag  Ag2898    1.0  0.45455  0.95455  0.86364  1.0000
  Ag  Ag2899    1.0  0.50000  0.90909  0.86364  1.0000
  Ag  Ag2900    1.0  0.50000  0.95455  0.81818  1.0000
  Ag  Ag2901    1.0  0.45455  0.90909  0.90909  1.0000
  Ag  Ag2902    1.0  0.45455  0.95455  0.95455  1.0000
  Ag  Ag2903    1.0  0.50000  0.90909  0.95455  1.0000
  Ag  Ag2904    1.0  0.50000  0.95455  0.90909  1.0000
  Ag  Ag2905    1.0  0.54545  0.00000  0.00000  1.0000
  Ag  Ag2906    1.0  0.54545  0.04545  0.04545  1.0000
  Ag  Ag2907    1.0  0.59091  0.00000  0.04545  1.0000
  Ag  Ag2908    1.0  0.59091  0.04545  0.00000  1.0000
  Ag  Ag2909    1.0  0.54545  0.00000  0.09091  1.0000
  Ag  Ag2910    1.0  0.54545  0.04545  0.13636  1.0000
  Ag  Ag2911    1.0  0.59091  0.00000  0.13636  1.0000
  Ag  Ag2912    1.0  0.59091  0.04545  0.09091  1.0000
  Ag  Ag2913    1.0  0.54545  0.00000  0.18182  1.0000
  Ag  Ag2914    1.0  0.54545  0.04545  0.22727  1.0000
  Ag  Ag2915    1.0  0.59091  0.00000  0.22727  1.0000
  Ag  Ag2916    1.0  0.59091  0.04545  0.18182  1.0000
  Ag  Ag2917    1.0  0.54545  0.00000  0.27273  1.0000
  Ag  Ag2918    1.0  0.54545  0.04545  0.31818  1.0000
  Ag  Ag2919    1.0  0.59091  0.00000  0.31818  1.0000
  Ag  Ag2920    1.0  0.59091  0.04545  0.27273  1.0000
  Ag  Ag2921    1.0  0.54545  0.00000  0.36364  1.0000
  Ag  Ag2922    1.0  0.54545  0.04545  0.40909  1.0000
  Ag  Ag2923    1.0  0.59091  0.00000  0.40909  1.0000
  Ag  Ag2924    1.0  0.59091  0.04545  0.36364  1.0000
  Ag  Ag2925    1.0  0.54545  0.00000  0.45455  1.0000
  Ag  Ag2926    1.0  0.54545  0.04545  0.50000  1.0000
  Ag  Ag2927    1.0  0.59091  0.00000  0.50000  1.0000
  Ag  Ag2928    1.0  0.59091  0.04545  0.45455  1.0000
  Ag  Ag2929    1.0  0.54545  0.00000  0.54545  1.0000
  Ag  Ag2930    1.0  0.54545  0.04545  0.59091  1.0000
  Ag  Ag2931    1.0  0.59091  0.00000  0.59091  1.0000
  Ag  Ag2932    1.0  0.59091  0.04545  0.54545  1.0000
  Ag  Ag2933    1.0  0.54545  0.00000  0.63636  1.0000
  Ag  Ag2934    1.0  0.54545  0.04545  0.68182  1.0000
  Ag  Ag2935    1.0  0.59091  0.00000  0.68182  1.0000
  Ag  Ag2936    1.0  0.59091  0.04545  0.63636  1.0000
  Ag  Ag2937    1.0  0.54545  0.00000  0.72727  1.0000
  Ag  Ag2938    1.0  0.54545  0.04545  0.77273  1.0000
  Ag  Ag2939    1.0  0.59091  0.00000  0.77273  1.0000
  Ag  Ag2940    1.0  0.59091  0.04545  0.72727  1.0000
  Ag  Ag2941    1.0  0.54545  0.00000  0.81818  1.0000
  Ag  Ag2942    1.0  0.54545  0.04545  0.86364  1.0000
  Ag  Ag2943    1.0  0.59091  0.00000  0.86364  1.0000
  Ag  Ag2944    1.0  0.59091  0.04545  0.81818  1.0000
  Ag  Ag2945    1.0  0.54545  0.00000  0.90909  1.0000
  Ag  Ag2946    1.0  0.54545  0.04545  0.95455  1.0000
  Ag  Ag2947    1.0  0.59091  0.00000  0.95455  1.0000
  Ag  Ag2948    1.0  0.59091  0.04545  0.90909  1.0000
  Ag  Ag2949    1.0  0.54545  0.09091  0.00000  1.0000
  Ag  Ag2950    1.0  0.54545  0.13636  0.04545  1.0000
  Ag  Ag2951    1.0  0.59091  0.09091  0.04545  1.0000
  Ag  Ag2952    1.0  0.59091  0.13636  0.00000  1.0000
  Ag  Ag2953    1.0  0.54545  0.09091  0.09091  1.0000
  Ag  Ag2954    1.0  0.54545  0.13636  0.13636  1.0000
  Ag  Ag2955    1.0  0.59091  0.09091  0.13636  1.0000
  Ag  Ag2956    1.0  0.59091  0.13636  0.09091  1.0000
  Ag  Ag2957    1.0  0.54545  0.09091  0.18182  1.0000
  Ag  Ag2958    1.0  0.54545  0.13636  0.22727  1.0000
  Ag  Ag2959    1.0  0.59091  0.09091  0.22727  1.0000
  Ag  Ag2960    1.0  0.59091  0.13636  0.18182  1.0000
  Ag  Ag2961    1.0  0.54545  0.09091  0.27273  1.0000
  Ag  Ag2962    1.0  0.54545  0.13636  0.31818  1.0000
  Ag  Ag2963    1.0  0.59091  0.09091  0.31818  1.0000
  Ag  Ag2964    1.0  0.59091  0.13636  0.27273  1.0000
  Ag  Ag2965    1.0  0.54545  0.09091  0.36364  1.0000
  Ag  Ag2966    1.0  0.54545  0.13636  0.40909  1.0000
  Ag  Ag2967    1.0  0.59091  0.09091  0.40909  1.0000
  Ag  Ag2968    1.0  0.59091  0.13636  0.36364  1.0000
  Ag  Ag2969    1.0  0.54545  0.09091  0.45455  1.0000
  Ag  Ag2970    1.0  0.54545  0.13636  0.50000  1.0000
  Ag  Ag2971    1.0  0.59091  0.09091  0.50000  1.0000
  Ag  Ag2972    1.0  0.59091  0.13636  0.45455  1.0000
  Ag  Ag2973    1.0  0.54545  0.09091  0.54545  1.0000
  Ag  Ag2974    1.0  0.54545  0.13636  0.59091  1.0000
  Ag  Ag2975    1.0  0.59091  0.09091  0.59091  1.0000
  Ag  Ag2976    1.0  0.59091  0.13636  0.54545  1.0000
  Ag  Ag2977    1.0  0.54545  0.09091  0.63636  1.0000
  Ag  Ag2978    1.0  0.54545  0.13636  0.68182  1.0000
  Ag  Ag2979    1.0  0.59091  0.09091  0.68182  1.0000
  Ag  Ag2980    1.0  0.59091  0.13636  0.63636  1.0000
  Ag  Ag2981    1.0  0.54545  0.09091  0.72727  1.0000
  Ag  Ag2982    1.0  0.54545  0.13636  0.77273  1.0000
  Ag  Ag2983    1.0  0.59091  0.09091  0.77273  1.0000
  Ag  Ag2984    1.0  0.59091  0.13636  0.72727  1.0000
  Ag  Ag2985    1.0  0.54545  0.09091  0.81818  1.0000
  Ag  Ag2986    1.0  0.54545  0.13636  0.86364  1.0000
  Ag  Ag2987    1.0  0.59091  0.09091  0.86364  1.0000
  Ag  Ag2988    1.0  0.59091  0.13636  0.81818  1.0000
  Ag  Ag2989    1.0  0.54545  0.09091  0.90909  1.0000
  Ag  Ag2990    1.0  0.54545  0.13636  0.95455  1.0000
  Ag  Ag2991    1.0  0.59091  0.09091  0.95455  1.0000
  Ag  Ag2992    1.0  0.59091  0.13636  0.90909  1.0000
  Ag  Ag2993    1.0  0.54545  0.18182  0.00000  1.0000
  Ag  Ag2994    1.0  0.54545  0.22727  0.04545  1.0000
  Ag  Ag2995    1.0  0.59091  0.18182  0.04545  1.0000
  Ag  Ag2996    1.0  0.59091  0.22727  0.00000  1.0000
  Ag  Ag2997    1.0  0.54545  0.18182  0.09091  1.0000
  Ag  Ag2998    1.0  0.54545  0.22727  0.13636  1.0000
  Ag  Ag2999    1.0  0.59091  0.18182  0.13636  1.0000
  Ag  Ag3000    1.0  0.59091  0.22727  0.09091  1.0000
  Ag  Ag3001    1.0  0.54545  0.18182  0.18182  1.0000
  Ag  Ag3002    1.0  0.54545  0.22727  0.22727  1.0000
  Ag  Ag3003    1.0  0.59091  0.18182  0.22727  1.0000
  Ag  Ag3004    1.0  0.59091  0.22727  0.18182  1.0000
  Ag  Ag3005    1.0  0.54545  0.18182  0.27273  1.0000
  Ag  Ag3006    1.0  0.54545  0.22727  0.31818  1.0000
  Ag  Ag3007    1.0  0.59091  0.18182  0.31818  1.0000
  Ag  Ag3008    1.0  0.59091  0.22727  0.27273  1.0000
  Ag  Ag3009    1.0  0.54545  0.18182  0.36364  1.0000
  Ag  Ag3010    1.0  0.54545  0.22727  0.40909  1.0000
  Ag  Ag3011    1.0  0.59091  0.18182  0.40909  1.0000
  Ag  Ag3012    1.0  0.59091  0.22727  0.36364  1.0000
  Ag  Ag3013    1.0  0.54545  0.18182  0.45455  1.0000
  Ag  Ag3014    1.0  0.54545  0.22727  0.50000  1.0000
  Ag  Ag3015    1.0  0.59091  0.18182  0.50000  1.0000
  Ag  Ag3016    1.0  0.59091  0.22727  0.45455  1.0000
  Ag  Ag3017    1.0  0.54545  0.18182  0.54545  1.0000
  Ag  Ag3018    1.0  0.54545  0.22727  0.59091  1.0000
  Ag  Ag3019    1.0  0.59091  0.18182  0.59091  1.0000
  Ag  Ag3020    1.0  0.59091  0.22727  0.54545  1.0000
  Ag  Ag3021    1.0  0.54545  0.18182  0.63636  1.0000
  Ag  Ag3022    1.0  0.54545  0.22727  0.68182  1.0000
  Ag  Ag3023    1.0  0.59091  0.18182  0.68182  1.0000
  Ag  Ag3024    1.0  0.59091  0.22727  0.63636  1.0000
  Ag  Ag3025    1.0  0.54545  0.18182  0.72727  1.0000
  Ag  Ag3026    1.0  0.54545  0.22727  0.77273  1.0000
  Ag  Ag3027    1.0  0.59091  0.18182  0.77273  1.0000
  Ag  Ag3028    1.0  0.59091  0.22727  0.72727  1.0000
  Ag  Ag3029    1.0  0.54545  0.18182  0.81818  1.0000
  Ag  Ag3030    1.0  0.54545  0.22727  0.86364  1.0000
  Ag  Ag3031    1.0  0.59091  0.18182  0.86364  1.0000
  Ag  Ag3032    1.0  0.59091  0.22727  0.81818  1.0000
  Ag  Ag3033    1.0  0.54545  0.18182  0.90909  1.0000
  Ag  Ag3034    1.0  0.54545  0.22727  0.95455  1.0000
  Ag  Ag3035    1.0  0.59091  0.18182  0.95455  1.0000
  Ag  Ag3036    1.0  0.59091  0.22727  0.90909  1.0000
  Ag  Ag3037    1.0  0.54545  0.27273  0.00000  1.0000
  Ag  Ag3038    1.0  0.54545  0.31818  0.04545  1.0000
  Ag  Ag3039    1.0  0.59091  0.27273  0.04545  1.0000
  Ag  Ag3040    1.0  0.59091  0.31818  0.00000  1.0000
  Ag  Ag3041    1.0  0.54545  0.27273  0.09091  1.0000
  Ag  Ag3042    1.0  0.54545  0.31818  0.13636  1.0000
  Ag  Ag3043    1.0  0.59091  0.27273  0.13636  1.0000
  Ag  Ag3044    1.0  0.59091  0.31818  0.09091  1.0000
  Ag  Ag3045    1.0  0.54545  0.27273  0.18182  1.0000
  Ag  Ag3046    1.0  0.54545  0.31818  0.22727  1.0000
  Ag  Ag3047    1.0  0.59091  0.27273  0.22727  1.0000
  Ag  Ag3048    1.0  0.59091  0.31818  0.18182  1.0000
  Ag  Ag3049    1.0  0.54545  0.27273  0.27273  1.0000
  Ag  Ag3050    1.0  0.54545  0.31818  0.31818  1.0000
  Ag  Ag3051    1.0  0.59091  0.27273  0.31818  1.0000
  Ag  Ag3052    1.0  0.59091  0.31818  0.27273  1.0000
  Ag  Ag3053    1.0  0.54545  0.27273  0.36364  1.0000
  Ag  Ag3054    1.0  0.54545  0.31818  0.40909  1.0000
  Ag  Ag3055    1.0  0.59091  0.27273  0.40909  1.0000
  Ag  Ag3056    1.0  0.59091  0.31818  0.36364  1.0000
  Ag  Ag3057    1.0  0.54545  0.27273  0.45455  1.0000
  Ag  Ag3058    1.0  0.54545  0.31818  0.50000  1.0000
  Ag  Ag3059    1.0  0.59091  0.27273  0.50000  1.0000
  Ag  Ag3060    1.0  0.59091  0.31818  0.45455  1.0000
  Ag  Ag3061    1.0  0.54545  0.27273  0.54545  1.0000
  Ag  Ag3062    1.0  0.54545  0.31818  0.59091  1.0000
  Ag  Ag3063    1.0  0.59091  0.27273  0.59091  1.0000
  Ag  Ag3064    1.0  0.59091  0.31818  0.54545  1.0000
  Ag  Ag3065    1.0  0.54545  0.27273  0.63636  1.0000
  Ag  Ag3066    1.0  0.54545  0.31818  0.68182  1.0000
  Ag  Ag3067    1.0  0.59091  0.27273  0.68182  1.0000
  Ag  Ag3068    1.0  0.59091  0.31818  0.63636  1.0000
  Ag  Ag3069    1.0  0.54545  0.27273  0.72727  1.0000
  Ag  Ag3070    1.0  0.54545  0.31818  0.77273  1.0000
  Ag  Ag3071    1.0  0.59091  0.27273  0.77273  1.0000
  Ag  Ag3072    1.0  0.59091  0.31818  0.72727  1.0000
  Ag  Ag3073    1.0  0.54545  0.27273  0.81818  1.0000
  Ag  Ag3074    1.0  0.54545  0.31818  0.86364  1.0000
  Ag  Ag3075    1.0  0.59091  0.27273  0.86364  1.0000
  Ag  Ag3076    1.0  0.59091  0.31818  0.81818  1.0000
  Ag  Ag3077    1.0  0.54545  0.27273  0.90909  1.0000
  Ag  Ag3078    1.0  0.54545  0.31818  0.95455  1.0000
  Ag  Ag3079    1.0  0.59091  0.27273  0.95455  1.0000
  Ag  Ag3080    1.0  0.59091  0.31818  0.90909  1.0000
  Ag  Ag3081    1.0  0.54545  0.36364  0.00000  1.0000
  Ag  Ag3082    1.0  0.54545  0.40909  0.04545  1.0000
  Ag  Ag3083    1.0  0.59091  0.36364  0.04545  1.0000
  Ag  Ag3084    1.0  0.59091  0.40909  0.00000  1.0000
  Ag  Ag3085    1.0  0.54545  0.36364  0.09091  1.0000
  Ag  Ag3086    1.0  0.54545  0.40909  0.13636  1.0000
  Ag  Ag3087    1.0  0.59091  0.36364  0.13636  1.0000
  Ag  Ag3088    1.0  0.59091  0.40909  0.09091  1.0000
  Ag  Ag3089    1.0  0.54545  0.36364  0.18182  1.0000
  Ag  Ag3090    1.0  0.54545  0.40909  0.22727  1.0000
  Ag  Ag3091    1.0  0.59091  0.36364  0.22727  1.0000
  Ag  Ag3092    1.0  0.59091  0.40909  0.18182  1.0000
  Ag  Ag3093    1.0  0.54545  0.36364  0.27273  1.0000
  Ag  Ag3094    1.0  0.54545  0.40909  0.31818  1.0000
  Ag  Ag3095    1.0  0.59091  0.36364  0.31818  1.0000
  Ag  Ag3096    1.0  0.59091  0.40909  0.27273  1.0000
  Ag  Ag3097    1.0  0.54545  0.36364  0.36364  1.0000
  Ag  Ag3098    1.0  0.54545  0.40909  0.40909  1.0000
  Ag  Ag3099    1.0  0.59091  0.36364  0.40909  1.0000
  Ag  Ag3100    1.0  0.59091  0.40909  0.36364  1.0000
  Ag  Ag3101    1.0  0.54545  0.36364  0.45455  1.0000
  Ag  Ag3102    1.0  0.54545  0.40909  0.50000  1.0000
  Ag  Ag3103    1.0  0.59091  0.36364  0.50000  1.0000
  Ag  Ag3104    1.0  0.59091  0.40909  0.45455  1.0000
  Ag  Ag3105    1.0  0.54545  0.36364  0.54545  1.0000
  Ag  Ag3106    1.0  0.54545  0.40909  0.59091  1.0000
  Ag  Ag3107    1.0  0.59091  0.36364  0.59091  1.0000
  Ag  Ag3108    1.0  0.59091  0.40909  0.54545  1.0000
  Ag  Ag3109    1.0  0.54545  0.36364  0.63636  1.0000
  Ag  Ag3110    1.0  0.54545  0.40909  0.68182  1.0000
  Ag  Ag3111    1.0  0.59091  0.36364  0.68182  1.0000
  Ag  Ag3112    1.0  0.59091  0.40909  0.63636  1.0000
  Ag  Ag3113    1.0  0.54545  0.36364  0.72727  1.0000
  Ag  Ag3114    1.0  0.54545  0.40909  0.77273  1.0000
  Ag  Ag3115    1.0  0.59091  0.36364  0.77273  1.0000
  Ag  Ag3116    1.0  0.59091  0.40909  0.72727  1.0000
  Ag  Ag3117    1.0  0.54545  0.36364  0.81818  1.0000
  Ag  Ag3118    1.0  0.54545  0.40909  0.86364  1.0000
  Ag  Ag3119    1.0  0.59091  0.36364  0.86364  1.0000
  Ag  Ag3120    1.0  0.59091  0.40909  0.81818  1.0000
  Ag  Ag3121    1.0  0.54545  0.36364  0.90909  1.0000
  Ag  Ag3122    1.0  0.54545  0.40909  0.95455  1.0000
  Ag  Ag3123    1.0  0.59091  0.36364  0.95455  1.0000
  Ag  Ag3124    1.0  0.59091  0.40909  0.90909  1.0000
  Ag  Ag3125    1.0  0.54545  0.45455  0.00000  1.0000
  Ag  Ag3126    1.0  0.54545  0.50000  0.04545  1.0000
  Ag  Ag3127    1.0  0.59091  0.45455  0.04545  1.0000
  Ag  Ag3128    1.0  0.59091  0.50000  0.00000  1.0000
  Ag  Ag3129    1.0  0.54545  0.45455  0.09091  1.0000
  Ag  Ag3130    1.0  0.54545  0.50000  0.13636  1.0000
  Ag  Ag3131    1.0  0.59091  0.45455  0.13636  1.0000
  Ag  Ag3132    1.0  0.59091  0.50000  0.09091  1.0000
  Ag  Ag3133    1.0  0.54545  0.45455  0.18182  1.0000
  Ag  Ag3134    1.0  0.54545  0.50000  0.22727  1.0000
  Ag  Ag3135    1.0  0.59091  0.45455  0.22727  1.0000
  Ag  Ag3136    1.0  0.59091  0.50000  0.18182  1.0000
  Ag  Ag3137    1.0  0.54545  0.45455  0.27273  1.0000
  Ag  Ag3138    1.0  0.54545  0.50000  0.31818  1.0000
  Ag  Ag3139    1.0  0.59091  0.45455  0.31818  1.0000
  Ag  Ag3140    1.0  0.59091  0.50000  0.27273  1.0000
  Ag  Ag3141    1.0  0.54545  0.45455  0.36364  1.0000
  Ag  Ag3142    1.0  0.54545  0.50000  0.40909  1.0000
  Ag  Ag3143    1.0  0.59091  0.45455  0.40909  1.0000
  Ag  Ag3144    1.0  0.59091  0.50000  0.36364  1.0000
  Ag  Ag3145    1.0  0.54545  0.45455  0.45455  1.0000
  Ag  Ag3146    1.0  0.54545  0.50000  0.50000  1.0000
  Ag  Ag3147    1.0  0.59091  0.45455  0.50000  1.0000
  Ag  Ag3148    1.0  0.59091  0.50000  0.45455  1.0000
  Ag  Ag3149    1.0  0.54545  0.45455  0.54545  1.0000
  Ag  Ag3150    1.0  0.54545  0.50000  0.59091  1.0000
  Ag  Ag3151    1.0  0.59091  0.45455  0.59091  1.0000
  Ag  Ag3152    1.0  0.59091  0.50000  0.54545  1.0000
  Ag  Ag3153    1.0  0.54545  0.45455  0.63636  1.0000
  Ag  Ag3154    1.0  0.54545  0.50000  0.68182  1.0000
  Ag  Ag3155    1.0  0.59091  0.45455  0.68182  1.0000
  Ag  Ag3156    1.0  0.59091  0.50000  0.63636  1.0000
  Ag  Ag3157    1.0  0.54545  0.45455  0.72727  1.0000
  Ag  Ag3158    1.0  0.54545  0.50000  0.77273  1.0000
  Ag  Ag3159    1.0  0.59091  0.45455  0.77273  1.0000
  Ag  Ag3160    1.0  0.59091  0.50000  0.72727  1.0000
  Ag  Ag3161    1.0  0.54545  0.45455  0.81818  1.0000
  Ag  Ag3162    1.0  0.54545  0.50000  0.86364  1.0000
  Ag  Ag3163    1.0  0.59091  0.45455  0.86364  1.0000
  Ag  Ag3164    1.0  0.59091  0.50000  0.81818  1.0000
  Ag  Ag3165    1.0  0.54545  0.45455  0.90909  1.0000
  Ag  Ag3166    1.0  0.54545  0.50000  0.95455  1.0000
  Ag  Ag3167    1.0  0.59091  0.45455  0.95455  1.0000
  Ag  Ag3168    1.0  0.59091  0.50000  0.90909  1.0000
  Ag  Ag3169    1.0  0.54545  0.54545  0.00000  1.0000
  Ag  Ag3170    1.0  0.54545  0.59091  0.04545  1.0000
  Ag  Ag3171    1.0  0.59091  0.54545  0.04545  1.0000
  Ag  Ag3172    1.0  0.59091  0.59091  0.00000  1.0000
  Ag  Ag3173    1.0  0.54545  0.54545  0.09091  1.0000
  Ag  Ag3174    1.0  0.54545  0.59091  0.13636  1.0000
  Ag  Ag3175    1.0  0.59091  0.54545  0.13636  1.0000
  Ag  Ag3176    1.0  0.59091  0.59091  0.09091  1.0000
  Ag  Ag3177    1.0  0.54545  0.54545  0.18182  1.0000
  Ag  Ag3178    1.0  0.54545  0.59091  0.22727  1.0000
  Ag  Ag3179    1.0  0.59091  0.54545  0.22727  1.0000
  Ag  Ag3180    1.0  0.59091  0.59091  0.18182  1.0000
  Ag  Ag3181    1.0  0.54545  0.54545  0.27273  1.0000
  Ag  Ag3182    1.0  0.54545  0.59091  0.31818  1.0000
  Ag  Ag3183    1.0  0.59091  0.54545  0.31818  1.0000
  Ag  Ag3184    1.0  0.59091  0.59091  0.27273  1.0000
  Ag  Ag3185    1.0  0.54545  0.54545  0.36364  1.0000
  Ag  Ag3186    1.0  0.54545  0.59091  0.40909  1.0000
  Ag  Ag3187    1.0  0.59091  0.54545  0.40909  1.0000
  Ag  Ag3188    1.0  0.59091  0.59091  0.36364  1.0000
  Ag  Ag3189    1.0  0.54545  0.54545  0.45455  1.0000
  Ag  Ag3190    1.0  0.54545  0.59091  0.50000  1.0000
  Ag  Ag3191    1.0  0.59091  0.54545  0.50000  1.0000
  Ag  Ag3192    1.0  0.59091  0.59091  0.45455  1.0000
  Ag  Ag3193    1.0  0.54545  0.54545  0.54545  1.0000
  Ag  Ag3194    1.0  0.54545  0.59091  0.59091  1.0000
  Ag  Ag3195    1.0  0.59091  0.54545  0.59091  1.0000
  Ag  Ag3196    1.0  0.59091  0.59091  0.54545  1.0000
  Ag  Ag3197    1.0  0.54545  0.54545  0.63636  1.0000
  Ag  Ag3198    1.0  0.54545  0.59091  0.68182  1.0000
  Ag  Ag3199    1.0  0.59091  0.54545  0.68182  1.0000
  Ag  Ag3200    1.0  0.59091  0.59091  0.63636  1.0000
  Ag  Ag3201    1.0  0.54545  0.54545  0.72727  1.0000
  Ag  Ag3202    1.0  0.54545  0.59091  0.77273  1.0000
  Ag  Ag3203    1.0  0.59091  0.54545  0.77273  1.0000
  Ag  Ag3204    1.0  0.59091  0.59091  0.72727  1.0000
  Ag  Ag3205    1.0  0.54545  0.54545  0.81818  1.0000
  Ag  Ag3206    1.0  0.54545  0.59091  0.86364  1.0000
  Ag  Ag3207    1.0  0.59091  0.54545  0.86364  1.0000
  Ag  Ag3208    1.0  0.59091  0.59091  0.81818  1.0000
  Ag  Ag3209    1.0  0.54545  0.54545  0.90909  1.0000
  Ag  Ag3210    1.0  0.54545  0.59091  0.95455  1.0000
  Ag  Ag3211    1.0  0.59091  0.54545  0.95455  1.0000
  Ag  Ag3212    1.0  0.59091  0.59091  0.90909  1.0000
  Ag  Ag3213    1.0  0.54545  0.63636  0.00000  1.0000
  Ag  Ag3214    1.0  0.54545  0.68182  0.04545  1.0000
  Ag  Ag3215    1.0  0.59091  0.63636  0.04545  1.0000
  Ag  Ag3216    1.0  0.59091  0.68182  0.00000  1.0000
  Ag  Ag3217    1.0  0.54545  0.63636  0.09091  1.0000
  Ag  Ag3218    1.0  0.54545  0.68182  0.13636  1.0000
  Ag  Ag3219    1.0  0.59091  0.63636  0.13636  1.0000
  Ag  Ag3220    1.0  0.59091  0.68182  0.09091  1.0000
  Ag  Ag3221    1.0  0.54545  0.63636  0.18182  1.0000
  Ag  Ag3222    1.0  0.54545  0.68182  0.22727  1.0000
  Ag  Ag3223    1.0  0.59091  0.63636  0.22727  1.0000
  Ag  Ag3224    1.0  0.59091  0.68182  0.18182  1.0000
  Ag  Ag3225    1.0  0.54545  0.63636  0.27273  1.0000
  Ag  Ag3226    1.0  0.54545  0.68182  0.31818  1.0000
  Ag  Ag3227    1.0  0.59091  0.63636  0.31818  1.0000
  Ag  Ag3228    1.0  0.59091  0.68182  0.27273  1.0000
  Ag  Ag3229    1.0  0.54545  0.63636  0.36364  1.0000
  Ag  Ag3230    1.0  0.54545  0.68182  0.40909  1.0000
  Ag  Ag3231    1.0  0.59091  0.63636  0.40909  1.0000
  Ag  Ag3232    1.0  0.59091  0.68182  0.36364  1.0000
  Ag  Ag3233    1.0  0.54545  0.63636  0.45455  1.0000
  Ag  Ag3234    1.0  0.54545  0.68182  0.50000  1.0000
  Ag  Ag3235    1.0  0.59091  0.63636  0.50000  1.0000
  Ag  Ag3236    1.0  0.59091  0.68182  0.45455  1.0000
  Ag  Ag3237    1.0  0.54545  0.63636  0.54545  1.0000
  Ag  Ag3238    1.0  0.54545  0.68182  0.59091  1.0000
  Ag  Ag3239    1.0  0.59091  0.63636  0.59091  1.0000
  Ag  Ag3240    1.0  0.59091  0.68182  0.54545  1.0000
  Ag  Ag3241    1.0  0.54545  0.63636  0.63636  1.0000
  Ag  Ag3242    1.0  0.54545  0.68182  0.68182  1.0000
  Ag  Ag3243    1.0  0.59091  0.63636  0.68182  1.0000
  Ag  Ag3244    1.0  0.59091  0.68182  0.63636  1.0000
  Ag  Ag3245    1.0  0.54545  0.63636  0.72727  1.0000
  Ag  Ag3246    1.0  0.54545  0.68182  0.77273  1.0000
  Ag  Ag3247    1.0  0.59091  0.63636  0.77273  1.0000
  Ag  Ag3248    1.0  0.59091  0.68182  0.72727  1.0000
  Ag  Ag3249    1.0  0.54545  0.63636  0.81818  1.0000
  Ag  Ag3250    1.0  0.54545  0.68182  0.86364  1.0000
  Ag  Ag3251    1.0  0.59091  0.63636  0.86364  1.0000
  Ag  Ag3252    1.0  0.59091  0.68182  0.81818  1.0000
  Ag  Ag3253    1.0  0.54545  0.63636  0.90909  1.0000
  Ag  Ag3254    1.0  0.54545  0.68182  0.95455  1.0000
  Ag  Ag3255    1.0  0.59091  0.63636  0.95455  1.0000
  Ag  Ag3256    1.0  0.59091  0.68182  0.90909  1.0000
  Ag  Ag3257    1.0  0.54545  0.72727  0.00000  1.0000
  Ag  Ag3258    1.0  0.54545  0.77273  0.04545  1.0000
  Ag  Ag3259    1.0  0.59091  0.72727  0.04545  1.0000
  Ag  Ag3260    1.0  0.59091  0.77273  0.00000  1.0000
  Ag  Ag3261    1.0  0.54545  0.72727  0.09091  1.0000
  Ag  Ag3262    1.0  0.54545  0.77273  0.13636  1.0000
  Ag  Ag3263    1.0  0.59091  0.72727  0.13636  1.0000
  Ag  Ag3264    1.0  0.59091  0.77273  0.09091  1.0000
  Ag  Ag3265    1.0  0.54545  0.72727  0.18182  1.0000
  Ag  Ag3266    1.0  0.54545  0.77273  0.22727  1.0000
  Ag  Ag3267    1.0  0.59091  0.72727  0.22727  1.0000
  Ag  Ag3268    1.0  0.59091  0.77273  0.18182  1.0000
  Ag  Ag3269    1.0  0.54545  0.72727  0.27273  1.0000
  Ag  Ag3270    1.0  0.54545  0.77273  0.31818  1.0000
  Ag  Ag3271    1.0  0.59091  0.72727  0.31818  1.0000
  Ag  Ag3272    1.0  0.59091  0.77273  0.27273  1.0000
  Ag  Ag3273    1.0  0.54545  0.72727  0.36364  1.0000
  Ag  Ag3274    1.0  0.54545  0.77273  0.40909  1.0000
  Ag  Ag3275    1.0  0.59091  0.72727  0.40909  1.0000
  Ag  Ag3276    1.0  0.59091  0.77273  0.36364  1.0000
  Ag  Ag3277    1.0  0.54545  0.72727  0.45455  1.0000
  Ag  Ag3278    1.0  0.54545  0.77273  0.50000  1.0000
  Ag  Ag3279    1.0  0.59091  0.72727  0.50000  1.0000
  Ag  Ag3280    1.0  0.59091  0.77273  0.45455  1.0000
  Ag  Ag3281    1.0  0.54545  0.72727  0.54545  1.0000
  Ag  Ag3282    1.0  0.54545  0.77273  0.59091  1.0000
  Ag  Ag3283    1.0  0.59091  0.72727  0.59091  1.0000
  Ag  Ag3284    1.0  0.59091  0.77273  0.54545  1.0000
  Ag  Ag3285    1.0  0.54545  0.72727  0.63636  1.0000
  Ag  Ag3286    1.0  0.54545  0.77273  0.68182  1.0000
  Ag  Ag3287    1.0  0.59091  0.72727  0.68182  1.0000
  Ag  Ag3288    1.0  0.59091  0.77273  0.63636  1.0000
  Ag  Ag3289    1.0  0.54545  0.72727  0.72727  1.0000
  Ag  Ag3290    1.0  0.54545  0.77273  0.77273  1.0000
  Ag  Ag3291    1.0  0.59091  0.72727  0.77273  1.0000
  Ag  Ag3292    1.0  0.59091  0.77273  0.72727  1.0000
  Ag  Ag3293    1.0  0.54545  0.72727  0.81818  1.0000
  Ag  Ag3294    1.0  0.54545  0.77273  0.86364  1.0000
  Ag  Ag3295    1.0  0.59091  0.72727  0.86364  1.0000
  Ag  Ag3296    1.0  0.59091  0.77273  0.81818  1.0000
  Ag  Ag3297    1.0  0.54545  0.72727  0.90909  1.0000
  Ag  Ag3298    1.0  0.54545  0.77273  0.95455  1.0000
  Ag  Ag3299    1.0  0.59091  0.72727  0.95455  1.0000
  Ag  Ag3300    1.0  0.59091  0.77273  0.90909  1.0000
  Ag  Ag3301    1.0  0.54545  0.81818  0.00000  1.0000
  Ag  Ag3302    1.0  0.54545  0.86364  0.04545  1.0000
  Ag  Ag3303    1.0  0.59091  0.81818  0.04545  1.0000
  Ag  Ag3304    1.0  0.59091  0.86364  0.00000  1.0000
  Ag  Ag3305    1.0  0.54545  0.81818  0.09091  1.0000
  Ag  Ag3306    1.0  0.54545  0.86364  0.13636  1.0000
  Ag  Ag3307    1.0  0.59091  0.81818  0.13636  1.0000
  Ag  Ag3308    1.0  0.59091  0.86364  0.09091  1.0000
  Ag  Ag3309    1.0  0.54545  0.81818  0.18182  1.0000
  Ag  Ag3310    1.0  0.54545  0.86364  0.22727  1.0000
  Ag  Ag3311    1.0  0.59091  0.81818  0.22727  1.0000
  Ag  Ag3312    1.0  0.59091  0.86364  0.18182  1.0000
  Ag  Ag3313    1.0  0.54545  0.81818  0.27273  1.0000
  Ag  Ag3314    1.0  0.54545  0.86364  0.31818  1.0000
  Ag  Ag3315    1.0  0.59091  0.81818  0.31818  1.0000
  Ag  Ag3316    1.0  0.59091  0.86364  0.27273  1.0000
  Ag  Ag3317    1.0  0.54545  0.81818  0.36364  1.0000
  Ag  Ag3318    1.0  0.54545  0.86364  0.40909  1.0000
  Ag  Ag3319    1.0  0.59091  0.81818  0.40909  1.0000
  Ag  Ag3320    1.0  0.59091  0.86364  0.36364  1.0000
  Ag  Ag3321    1.0  0.54545  0.81818  0.45455  1.0000
  Ag  Ag3322    1.0  0.54545  0.86364  0.50000  1.0000
  Ag  Ag3323    1.0  0.59091  0.81818  0.50000  1.0000
  Ag  Ag3324    1.0  0.59091  0.86364  0.45455  1.0000
  Ag  Ag3325    1.0  0.54545  0.81818  0.54545  1.0000
  Ag  Ag3326    1.0  0.54545  0.86364  0.59091  1.0000
  Ag  Ag3327    1.0  0.59091  0.81818  0.59091  1.0000
  Ag  Ag3328    1.0  0.59091  0.86364  0.54545  1.0000
  Ag  Ag3329    1.0  0.54545  0.81818  0.63636  1.0000
  Ag  Ag3330    1.0  0.54545  0.86364  0.68182  1.0000
  Ag  Ag3331    1.0  0.59091  0.81818  0.68182  1.0000
  Ag  Ag3332    1.0  0.59091  0.86364  0.63636  1.0000
  Ag  Ag3333    1.0  0.54545  0.81818  0.72727  1.0000
  Ag  Ag3334    1.0  0.54545  0.86364  0.77273  1.0000
  Ag  Ag3335    1.0  0.59091  0.81818  0.77273  1.0000
  Ag  Ag3336    1.0  0.59091  0.86364  0.72727  1.0000
  Ag  Ag3337    1.0  0.54545  0.81818  0.81818  1.0000
  Ag  Ag3338    1.0  0.54545  0.86364  0.86364  1.0000
  Ag  Ag3339    1.0  0.59091  0.81818  0.86364  1.0000
  Ag  Ag3340    1.0  0.59091  0.86364  0.81818  1.0000
  Ag  Ag3341    1.0  0.54545  0.81818  0.90909  1.0000
  Ag  Ag3342    1.0  0.54545  0.86364  0.95455  1.0000
  Ag  Ag3343    1.0  0.59091  0.81818  0.95455  1.0000
  Ag  Ag3344    1.0  0.59091  0.86364  0.90909  1.0000
  Ag  Ag3345    1.0  0.54545  0.90909  0.00000  1.0000
  Ag  Ag3346    1.0  0.54545  0.95455  0.04545  1.0000
  Ag  Ag3347    1.0  0.59091  0.90909  0.04545  1.0000
  Ag  Ag3348    1.0  0.59091  0.95455  0.00000  1.0000
  Ag  Ag3349    1.0  0.54545  0.90909  0.09091  1.0000
  Ag  Ag3350    1.0  0.54545  0.95455  0.13636  1.0000
  Ag  Ag3351    1.0  0.59091  0.90909  0.13636  1.0000
  Ag  Ag3352    1.0  0.59091  0.95455  0.09091  1.0000
  Ag  Ag3353    1.0  0.54545  0.90909  0.18182  1.0000
  Ag  Ag3354    1.0  0.54545  0.95455  0.22727  1.0000
  Ag  Ag3355    1.0  0.59091  0.90909  0.22727  1.0000
  Ag  Ag3356    1.0  0.59091  0.95455  0.18182  1.0000
  Ag  Ag3357    1.0  0.54545  0.90909  0.27273  1.0000
  Ag  Ag3358    1.0  0.54545  0.95455  0.31818  1.0000
  Ag  Ag3359    1.0  0.59091  0.90909  0.31818  1.0000
  Ag  Ag3360    1.0  0.59091  0.95455  0.27273  1.0000
  Ag  Ag3361    1.0  0.54545  0.90909  0.36364  1.0000
  Ag  Ag3362    1.0  0.54545  0.95455  0.40909  1.0000
  Ag  Ag3363    1.0  0.59091  0.90909  0.40909  1.0000
  Ag  Ag3364    1.0  0.59091  0.95455  0.36364  1.0000
  Ag  Ag3365    1.0  0.54545  0.90909  0.45455  1.0000
  Ag  Ag3366    1.0  0.54545  0.95455  0.50000  1.0000
  Ag  Ag3367    1.0  0.59091  0.90909  0.50000  1.0000
  Ag  Ag3368    1.0  0.59091  0.95455  0.45455  1.0000
  Ag  Ag3369    1.0  0.54545  0.90909  0.54545  1.0000
  Ag  Ag3370    1.0  0.54545  0.95455  0.59091  1.0000
  Ag  Ag3371    1.0  0.59091  0.90909  0.59091  1.0000
  Ag  Ag3372    1.0  0.59091  0.95455  0.54545  1.0000
  Ag  Ag3373    1.0  0.54545  0.90909  0.63636  1.0000
  Ag  Ag3374    1.0  0.54545  0.95455  0.68182  1.0000
  Ag  Ag3375    1.0  0.59091  0.90909  0.68182  1.0000
  Ag  Ag3376    1.0  0.59091  0.95455  0.63636  1.0000
  Ag  Ag3377    1.0  0.54545  0.90909  0.72727  1.0000
  Ag  Ag3378    1.0  0.54545  0.95455  0.77273  1.0000
  Ag  Ag3379    1.0  0.59091  0.90909  0.77273  1.0000
  Ag  Ag3380    1.0  0.59091  0.95455  0.72727  1.0000
  Ag  Ag3381    1.0  0.54545  0.90909  0.81818  1.0000
  Ag  Ag3382    1.0  0.54545  0.95455  0.86364  1.0000
  Ag  Ag3383    1.0  0.59091  0.90909  0.86364  1.0000
  Ag  Ag3384    1.0  0.59091  0.95455  0.81818  1.0000
  Ag  Ag3385    1.0  0.54545  0.90909  0.90909  1.0000
  Ag  Ag3386    1.0  0.54545  0.95455  0.95455  1.0000
  Ag  Ag3387    1.0  0.59091  0.90909  0.95455  1.0000
  Ag  Ag3388    1.0  0.59091  0.95455  0.90909  1.0000
  Ag  Ag3389    1.0  0.63636  0.00000  0.00000  1.0000
  Ag  Ag3390    1.0  0.63636  0.04545  0.04545  1.0000
  Ag  Ag3391    1.0  0.68182  0.00000  0.04545  1.0000
  Ag  Ag3392    1.0  0.68182  0.04545  0.00000  1.0000
  Ag  Ag3393    1.0  0.63636  0.00000  0.09091  1.0000
  Ag  Ag3394    1.0  0.63636  0.04545  0.13636  1.0000
  Ag  Ag3395    1.0  0.68182  0.00000  0.13636  1.0000
  Ag  Ag3396    1.0  0.68182  0.04545  0.09091  1.0000
  Ag  Ag3397    1.0  0.63636  0.00000  0.18182  1.0000
  Ag  Ag3398    1.0  0.63636  0.04545  0.22727  1.0000
  Ag  Ag3399    1.0  0.68182  0.00000  0.22727  1.0000
  Ag  Ag3400    1.0  0.68182  0.04545  0.18182  1.0000
  Ag  Ag3401    1.0  0.63636  0.00000  0.27273  1.0000
  Ag  Ag3402    1.0  0.63636  0.04545  0.31818  1.0000
  Ag  Ag3403    1.0  0.68182  0.00000  0.31818  1.0000
  Ag  Ag3404    1.0  0.68182  0.04545  0.27273  1.0000
  Ag  Ag3405    1.0  0.63636  0.00000  0.36364  1.0000
  Ag  Ag3406    1.0  0.63636  0.04545  0.40909  1.0000
  Ag  Ag3407    1.0  0.68182  0.00000  0.40909  1.0000
  Ag  Ag3408    1.0  0.68182  0.04545  0.36364  1.0000
  Ag  Ag3409    1.0  0.63636  0.00000  0.45455  1.0000
  Ag  Ag3410    1.0  0.63636  0.04545  0.50000  1.0000
  Ag  Ag3411    1.0  0.68182  0.00000  0.50000  1.0000
  Ag  Ag3412    1.0  0.68182  0.04545  0.45455  1.0000
  Ag  Ag3413    1.0  0.63636  0.00000  0.54545  1.0000
  Ag  Ag3414    1.0  0.63636  0.04545  0.59091  1.0000
  Ag  Ag3415    1.0  0.68182  0.00000  0.59091  1.0000
  Ag  Ag3416    1.0  0.68182  0.04545  0.54545  1.0000
  Ag  Ag3417    1.0  0.63636  0.00000  0.63636  1.0000
  Ag  Ag3418    1.0  0.63636  0.04545  0.68182  1.0000
  Ag  Ag3419    1.0  0.68182  0.00000  0.68182  1.0000
  Ag  Ag3420    1.0  0.68182  0.04545  0.63636  1.0000
  Ag  Ag3421    1.0  0.63636  0.00000  0.72727  1.0000
  Ag  Ag3422    1.0  0.63636  0.04545  0.77273  1.0000
  Ag  Ag3423    1.0  0.68182  0.00000  0.77273  1.0000
  Ag  Ag3424    1.0  0.68182  0.04545  0.72727  1.0000
  Ag  Ag3425    1.0  0.63636  0.00000  0.81818  1.0000
  Ag  Ag3426    1.0  0.63636  0.04545  0.86364  1.0000
  Ag  Ag3427    1.0  0.68182  0.00000  0.86364  1.0000
  Ag  Ag3428    1.0  0.68182  0.04545  0.81818  1.0000
  Ag  Ag3429    1.0  0.63636  0.00000  0.90909  1.0000
  Ag  Ag3430    1.0  0.63636  0.04545  0.95455  1.0000
  Ag  Ag3431    1.0  0.68182  0.00000  0.95455  1.0000
  Ag  Ag3432    1.0  0.68182  0.04545  0.90909  1.0000
  Ag  Ag3433    1.0  0.63636  0.09091  0.00000  1.0000
  Ag  Ag3434    1.0  0.63636  0.13636  0.04545  1.0000
  Ag  Ag3435    1.0  0.68182  0.09091  0.04545  1.0000
  Ag  Ag3436    1.0  0.68182  0.13636  0.00000  1.0000
  Ag  Ag3437    1.0  0.63636  0.09091  0.09091  1.0000
  Ag  Ag3438    1.0  0.63636  0.13636  0.13636  1.0000
  Ag  Ag3439    1.0  0.68182  0.09091  0.13636  1.0000
  Ag  Ag3440    1.0  0.68182  0.13636  0.09091  1.0000
  Ag  Ag3441    1.0  0.63636  0.09091  0.18182  1.0000
  Ag  Ag3442    1.0  0.63636  0.13636  0.22727  1.0000
  Ag  Ag3443    1.0  0.68182  0.09091  0.22727  1.0000
  Ag  Ag3444    1.0  0.68182  0.13636  0.18182  1.0000
  Ag  Ag3445    1.0  0.63636  0.09091  0.27273  1.0000
  Ag  Ag3446    1.0  0.63636  0.13636  0.31818  1.0000
  Ag  Ag3447    1.0  0.68182  0.09091  0.31818  1.0000
  Ag  Ag3448    1.0  0.68182  0.13636  0.27273  1.0000
  Ag  Ag3449    1.0  0.63636  0.09091  0.36364  1.0000
  Ag  Ag3450    1.0  0.63636  0.13636  0.40909  1.0000
  Ag  Ag3451    1.0  0.68182  0.09091  0.40909  1.0000
  Ag  Ag3452    1.0  0.68182  0.13636  0.36364  1.0000
  Ag  Ag3453    1.0  0.63636  0.09091  0.45455  1.0000
  Ag  Ag3454    1.0  0.63636  0.13636  0.50000  1.0000
  Ag  Ag3455    1.0  0.68182  0.09091  0.50000  1.0000
  Ag  Ag3456    1.0  0.68182  0.13636  0.45455  1.0000
  Ag  Ag3457    1.0  0.63636  0.09091  0.54545  1.0000
  Ag  Ag3458    1.0  0.63636  0.13636  0.59091  1.0000
  Ag  Ag3459    1.0  0.68182  0.09091  0.59091  1.0000
  Ag  Ag3460    1.0  0.68182  0.13636  0.54545  1.0000
  Ag  Ag3461    1.0  0.63636  0.09091  0.63636  1.0000
  Ag  Ag3462    1.0  0.63636  0.13636  0.68182  1.0000
  Ag  Ag3463    1.0  0.68182  0.09091  0.68182  1.0000
  Ag  Ag3464    1.0  0.68182  0.13636  0.63636  1.0000
  Ag  Ag3465    1.0  0.63636  0.09091  0.72727  1.0000
  Ag  Ag3466    1.0  0.63636  0.13636  0.77273  1.0000
  Ag  Ag3467    1.0  0.68182  0.09091  0.77273  1.0000
  Ag  Ag3468    1.0  0.68182  0.13636  0.72727  1.0000
  Ag  Ag3469    1.0  0.63636  0.09091  0.81818  1.0000
  Ag  Ag3470    1.0  0.63636  0.13636  0.86364  1.0000
  Ag  Ag3471    1.0  0.68182  0.09091  0.86364  1.0000
  Ag  Ag3472    1.0  0.68182  0.13636  0.81818  1.0000
  Ag  Ag3473    1.0  0.63636  0.09091  0.90909  1.0000
  Ag  Ag3474    1.0  0.63636  0.13636  0.95455  1.0000
  Ag  Ag3475    1.0  0.68182  0.09091  0.95455  1.0000
  Ag  Ag3476    1.0  0.68182  0.13636  0.90909  1.0000
  Ag  Ag3477    1.0  0.63636  0.18182  0.00000  1.0000
  Ag  Ag3478    1.0  0.63636  0.22727  0.04545  1.0000
  Ag  Ag3479    1.0  0.68182  0.18182  0.04545  1.0000
  Ag  Ag3480    1.0  0.68182  0.22727  0.00000  1.0000
  Ag  Ag3481    1.0  0.63636  0.18182  0.09091  1.0000
  Ag  Ag3482    1.0  0.63636  0.22727  0.13636  1.0000
  Ag  Ag3483    1.0  0.68182  0.18182  0.13636  1.0000
  Ag  Ag3484    1.0  0.68182  0.22727  0.09091  1.0000
  Ag  Ag3485    1.0  0.63636  0.18182  0.18182  1.0000
  Ag  Ag3486    1.0  0.63636  0.22727  0.22727  1.0000
  Ag  Ag3487    1.0  0.68182  0.18182  0.22727  1.0000
  Ag  Ag3488    1.0  0.68182  0.22727  0.18182  1.0000
  Ag  Ag3489    1.0  0.63636  0.18182  0.27273  1.0000
  Ag  Ag3490    1.0  0.63636  0.22727  0.31818  1.0000
  Ag  Ag3491    1.0  0.68182  0.18182  0.31818  1.0000
  Ag  Ag3492    1.0  0.68182  0.22727  0.27273  1.0000
  Ag  Ag3493    1.0  0.63636  0.18182  0.36364  1.0000
  Ag  Ag3494    1.0  0.63636  0.22727  0.40909  1.0000
  Ag  Ag3495    1.0  0.68182  0.18182  0.40909  1.0000
  Ag  Ag3496    1.0  0.68182  0.22727  0.36364  1.0000
  Ag  Ag3497    1.0  0.63636  0.18182  0.45455  1.0000
  Ag  Ag3498    1.0  0.63636  0.22727  0.50000  1.0000
  Ag  Ag3499    1.0  0.68182  0.18182  0.50000  1.0000
  Ag  Ag3500    1.0  0.68182  0.22727  0.45455  1.0000
  Ag  Ag3501    1.0  0.63636  0.18182  0.54545  1.0000
  Ag  Ag3502    1.0  0.63636  0.22727  0.59091  1.0000
  Ag  Ag3503    1.0  0.68182  0.18182  0.59091  1.0000
  Ag  Ag3504    1.0  0.68182  0.22727  0.54545  1.0000
  Ag  Ag3505    1.0  0.63636  0.18182  0.63636  1.0000
  Ag  Ag3506    1.0  0.63636  0.22727  0.68182  1.0000
  Ag  Ag3507    1.0  0.68182  0.18182  0.68182  1.0000
  Ag  Ag3508    1.0  0.68182  0.22727  0.63636  1.0000
  Ag  Ag3509    1.0  0.63636  0.18182  0.72727  1.0000
  Ag  Ag3510    1.0  0.63636  0.22727  0.77273  1.0000
  Ag  Ag3511    1.0  0.68182  0.18182  0.77273  1.0000
  Ag  Ag3512    1.0  0.68182  0.22727  0.72727  1.0000
  Ag  Ag3513    1.0  0.63636  0.18182  0.81818  1.0000
  Ag  Ag3514    1.0  0.63636  0.22727  0.86364  1.0000
  Ag  Ag3515    1.0  0.68182  0.18182  0.86364  1.0000
  Ag  Ag3516    1.0  0.68182  0.22727  0.81818  1.0000
  Ag  Ag3517    1.0  0.63636  0.18182  0.90909  1.0000
  Ag  Ag3518    1.0  0.63636  0.22727  0.95455  1.0000
  Ag  Ag3519    1.0  0.68182  0.18182  0.95455  1.0000
  Ag  Ag3520    1.0  0.68182  0.22727  0.90909  1.0000
  Ag  Ag3521    1.0  0.63636  0.27273  0.00000  1.0000
  Ag  Ag3522    1.0  0.63636  0.31818  0.04545  1.0000
  Ag  Ag3523    1.0  0.68182  0.27273  0.04545  1.0000
  Ag  Ag3524    1.0  0.68182  0.31818  0.00000  1.0000
  Ag  Ag3525    1.0  0.63636  0.27273  0.09091  1.0000
  Ag  Ag3526    1.0  0.63636  0.31818  0.13636  1.0000
  Ag  Ag3527    1.0  0.68182  0.27273  0.13636  1.0000
  Ag  Ag3528    1.0  0.68182  0.31818  0.09091  1.0000
  Ag  Ag3529    1.0  0.63636  0.27273  0.18182  1.0000
  Ag  Ag3530    1.0  0.63636  0.31818  0.22727  1.0000
  Ag  Ag3531    1.0  0.68182  0.27273  0.22727  1.0000
  Ag  Ag3532    1.0  0.68182  0.31818  0.18182  1.0000
  Ag  Ag3533    1.0  0.63636  0.27273  0.27273  1.0000
  Ag  Ag3534    1.0  0.63636  0.31818  0.31818  1.0000
  Ag  Ag3535    1.0  0.68182  0.27273  0.31818  1.0000
  Ag  Ag3536    1.0  0.68182  0.31818  0.27273  1.0000
  Ag  Ag3537    1.0  0.63636  0.27273  0.36364  1.0000
  Ag  Ag3538    1.0  0.63636  0.31818  0.40909  1.0000
  Ag  Ag3539    1.0  0.68182  0.27273  0.40909  1.0000
  Ag  Ag3540    1.0  0.68182  0.31818  0.36364  1.0000
  Ag  Ag3541    1.0  0.63636  0.27273  0.45455  1.0000
  Ag  Ag3542    1.0  0.63636  0.31818  0.50000  1.0000
  Ag  Ag3543    1.0  0.68182  0.27273  0.50000  1.0000
  Ag  Ag3544    1.0  0.68182  0.31818  0.45455  1.0000
  Ag  Ag3545    1.0  0.63636  0.27273  0.54545  1.0000
  Ag  Ag3546    1.0  0.63636  0.31818  0.59091  1.0000
  Ag  Ag3547    1.0  0.68182  0.27273  0.59091  1.0000
  Ag  Ag3548    1.0  0.68182  0.31818  0.54545  1.0000
  Ag  Ag3549    1.0  0.63636  0.27273  0.63636  1.0000
  Ag  Ag3550    1.0  0.63636  0.31818  0.68182  1.0000
  Ag  Ag3551    1.0  0.68182  0.27273  0.68182  1.0000
  Ag  Ag3552    1.0  0.68182  0.31818  0.63636  1.0000
  Ag  Ag3553    1.0  0.63636  0.27273  0.72727  1.0000
  Ag  Ag3554    1.0  0.63636  0.31818  0.77273  1.0000
  Ag  Ag3555    1.0  0.68182  0.27273  0.77273  1.0000
  Ag  Ag3556    1.0  0.68182  0.31818  0.72727  1.0000
  Ag  Ag3557    1.0  0.63636  0.27273  0.81818  1.0000
  Ag  Ag3558    1.0  0.63636  0.31818  0.86364  1.0000
  Ag  Ag3559    1.0  0.68182  0.27273  0.86364  1.0000
  Ag  Ag3560    1.0  0.68182  0.31818  0.81818  1.0000
  Ag  Ag3561    1.0  0.63636  0.27273  0.90909  1.0000
  Ag  Ag3562    1.0  0.63636  0.31818  0.95455  1.0000
  Ag  Ag3563    1.0  0.68182  0.27273  0.95455  1.0000
  Ag  Ag3564    1.0  0.68182  0.31818  0.90909  1.0000
  Ag  Ag3565    1.0  0.63636  0.36364  0.00000  1.0000
  Ag  Ag3566    1.0  0.63636  0.40909  0.04545  1.0000
  Ag  Ag3567    1.0  0.68182  0.36364  0.04545  1.0000
  Ag  Ag3568    1.0  0.68182  0.40909  0.00000  1.0000
  Ag  Ag3569    1.0  0.63636  0.36364  0.09091  1.0000
  Ag  Ag3570    1.0  0.63636  0.40909  0.13636  1.0000
  Ag  Ag3571    1.0  0.68182  0.36364  0.13636  1.0000
  Ag  Ag3572    1.0  0.68182  0.40909  0.09091  1.0000
  Ag  Ag3573    1.0  0.63636  0.36364  0.18182  1.0000
  Ag  Ag3574    1.0  0.63636  0.40909  0.22727  1.0000
  Ag  Ag3575    1.0  0.68182  0.36364  0.22727  1.0000
  Ag  Ag3576    1.0  0.68182  0.40909  0.18182  1.0000
  Ag  Ag3577    1.0  0.63636  0.36364  0.27273  1.0000
  Ag  Ag3578    1.0  0.63636  0.40909  0.31818  1.0000
  Ag  Ag3579    1.0  0.68182  0.36364  0.31818  1.0000
  Ag  Ag3580    1.0  0.68182  0.40909  0.27273  1.0000
  Ag  Ag3581    1.0  0.63636  0.36364  0.36364  1.0000
  Ag  Ag3582    1.0  0.63636  0.40909  0.40909  1.0000
  Ag  Ag3583    1.0  0.68182  0.36364  0.40909  1.0000
  Ag  Ag3584    1.0  0.68182  0.40909  0.36364  1.0000
  Ag  Ag3585    1.0  0.63636  0.36364  0.45455  1.0000
  Ag  Ag3586    1.0  0.63636  0.40909  0.50000  1.0000
  Ag  Ag3587    1.0  0.68182  0.36364  0.50000  1.0000
  Ag  Ag3588    1.0  0.68182  0.40909  0.45455  1.0000
  Ag  Ag3589    1.0  0.63636  0.36364  0.54545  1.0000
  Ag  Ag3590    1.0  0.63636  0.40909  0.59091  1.0000
  Ag  Ag3591    1.0  0.68182  0.36364  0.59091  1.0000
  Ag  Ag3592    1.0  0.68182  0.40909  0.54545  1.0000
  Ag  Ag3593    1.0  0.63636  0.36364  0.63636  1.0000
  Ag  Ag3594    1.0  0.63636  0.40909  0.68182  1.0000
  Ag  Ag3595    1.0  0.68182  0.36364  0.68182  1.0000
  Ag  Ag3596    1.0  0.68182  0.40909  0.63636  1.0000
  Ag  Ag3597    1.0  0.63636  0.36364  0.72727  1.0000
  Ag  Ag3598    1.0  0.63636  0.40909  0.77273  1.0000
  Ag  Ag3599    1.0  0.68182  0.36364  0.77273  1.0000
  Ag  Ag3600    1.0  0.68182  0.40909  0.72727  1.0000
  Ag  Ag3601    1.0  0.63636  0.36364  0.81818  1.0000
  Ag  Ag3602    1.0  0.63636  0.40909  0.86364  1.0000
  Ag  Ag3603    1.0  0.68182  0.36364  0.86364  1.0000
  Ag  Ag3604    1.0  0.68182  0.40909  0.81818  1.0000
  Ag  Ag3605    1.0  0.63636  0.36364  0.90909  1.0000
  Ag  Ag3606    1.0  0.63636  0.40909  0.95455  1.0000
  Ag  Ag3607    1.0  0.68182  0.36364  0.95455  1.0000
  Ag  Ag3608    1.0  0.68182  0.40909  0.90909  1.0000
  Ag  Ag3609    1.0  0.63636  0.45455  0.00000  1.0000
  Ag  Ag3610    1.0  0.63636  0.50000  0.04545  1.0000
  Ag  Ag3611    1.0  0.68182  0.45455  0.04545  1.0000
  Ag  Ag3612    1.0  0.68182  0.50000  0.00000  1.0000
  Ag  Ag3613    1.0  0.63636  0.45455  0.09091  1.0000
  Ag  Ag3614    1.0  0.63636  0.50000  0.13636  1.0000
  Ag  Ag3615    1.0  0.68182  0.45455  0.13636  1.0000
  Ag  Ag3616    1.0  0.68182  0.50000  0.09091  1.0000
  Ag  Ag3617    1.0  0.63636  0.45455  0.18182  1.0000
  Ag  Ag3618    1.0  0.63636  0.50000  0.22727  1.0000
  Ag  Ag3619    1.0  0.68182  0.45455  0.22727  1.0000
  Ag  Ag3620    1.0  0.68182  0.50000  0.18182  1.0000
  Ag  Ag3621    1.0  0.63636  0.45455  0.27273  1.0000
  Ag  Ag3622    1.0  0.63636  0.50000  0.31818  1.0000
  Ag  Ag3623    1.0  0.68182  0.45455  0.31818  1.0000
  Ag  Ag3624    1.0  0.68182  0.50000  0.27273  1.0000
  Ag  Ag3625    1.0  0.63636  0.45455  0.36364  1.0000
  Ag  Ag3626    1.0  0.63636  0.50000  0.40909  1.0000
  Ag  Ag3627    1.0  0.68182  0.45455  0.40909  1.0000
  Ag  Ag3628    1.0  0.68182  0.50000  0.36364  1.0000
  Ag  Ag3629    1.0  0.63636  0.45455  0.45455  1.0000
  Ag  Ag3630    1.0  0.63636  0.50000  0.50000  1.0000
  Ag  Ag3631    1.0  0.68182  0.45455  0.50000  1.0000
  Ag  Ag3632    1.0  0.68182  0.50000  0.45455  1.0000
  Ag  Ag3633    1.0  0.63636  0.45455  0.54545  1.0000
  Ag  Ag3634    1.0  0.63636  0.50000  0.59091  1.0000
  Ag  Ag3635    1.0  0.68182  0.45455  0.59091  1.0000
  Ag  Ag3636    1.0  0.68182  0.50000  0.54545  1.0000
  Ag  Ag3637    1.0  0.63636  0.45455  0.63636  1.0000
  Ag  Ag3638    1.0  0.63636  0.50000  0.68182  1.0000
  Ag  Ag3639    1.0  0.68182  0.45455  0.68182  1.0000
  Ag  Ag3640    1.0  0.68182  0.50000  0.63636  1.0000
  Ag  Ag3641    1.0  0.63636  0.45455  0.72727  1.0000
  Ag  Ag3642    1.0  0.63636  0.50000  0.77273  1.0000
  Ag  Ag3643    1.0  0.68182  0.45455  0.77273  1.0000
  Ag  Ag3644    1.0  0.68182  0.50000  0.72727  1.0000
  Ag  Ag3645    1.0  0.63636  0.45455  0.81818  1.0000
  Ag  Ag3646    1.0  0.63636  0.50000  0.86364  1.0000
  Ag  Ag3647    1.0  0.68182  0.45455  0.86364  1.0000
  Ag  Ag3648    1.0  0.68182  0.50000  0.81818  1.0000
  Ag  Ag3649    1.0  0.63636  0.45455  0.90909  1.0000
  Ag  Ag3650    1.0  0.63636  0.50000  0.95455  1.0000
  Ag  Ag3651    1.0  0.68182  0.45455  0.95455  1.0000
  Ag  Ag3652    1.0  0.68182  0.50000  0.90909  1.0000
  Ag  Ag3653    1.0  0.63636  0.54545  0.00000  1.0000
  Ag  Ag3654    1.0  0.63636  0.59091  0.04545  1.0000
  Ag  Ag3655    1.0  0.68182  0.54545  0.04545  1.0000
  Ag  Ag3656    1.0  0.68182  0.59091  0.00000  1.0000
  Ag  Ag3657    1.0  0.63636  0.54545  0.09091  1.0000
  Ag  Ag3658    1.0  0.63636  0.59091  0.13636  1.0000
  Ag  Ag3659    1.0  0.68182  0.54545  0.13636  1.0000
  Ag  Ag3660    1.0  0.68182  0.59091  0.09091  1.0000
  Ag  Ag3661    1.0  0.63636  0.54545  0.18182  1.0000
  Ag  Ag3662    1.0  0.63636  0.59091  0.22727  1.0000
  Ag  Ag3663    1.0  0.68182  0.54545  0.22727  1.0000
  Ag  Ag3664    1.0  0.68182  0.59091  0.18182  1.0000
  Ag  Ag3665    1.0  0.63636  0.54545  0.27273  1.0000
  Ag  Ag3666    1.0  0.63636  0.59091  0.31818  1.0000
  Ag  Ag3667    1.0  0.68182  0.54545  0.31818  1.0000
  Ag  Ag3668    1.0  0.68182  0.59091  0.27273  1.0000
  Ag  Ag3669    1.0  0.63636  0.54545  0.36364  1.0000
  Ag  Ag3670    1.0  0.63636  0.59091  0.40909  1.0000
  Ag  Ag3671    1.0  0.68182  0.54545  0.40909  1.0000
  Ag  Ag3672    1.0  0.68182  0.59091  0.36364  1.0000
  Ag  Ag3673    1.0  0.63636  0.54545  0.45455  1.0000
  Ag  Ag3674    1.0  0.63636  0.59091  0.50000  1.0000
  Ag  Ag3675    1.0  0.68182  0.54545  0.50000  1.0000
  Ag  Ag3676    1.0  0.68182  0.59091  0.45455  1.0000
  Ag  Ag3677    1.0  0.63636  0.54545  0.54545  1.0000
  Ag  Ag3678    1.0  0.63636  0.59091  0.59091  1.0000
  Ag  Ag3679    1.0  0.68182  0.54545  0.59091  1.0000
  Ag  Ag3680    1.0  0.68182  0.59091  0.54545  1.0000
  Ag  Ag3681    1.0  0.63636  0.54545  0.63636  1.0000
  Ag  Ag3682    1.0  0.63636  0.59091  0.68182  1.0000
  Ag  Ag3683    1.0  0.68182  0.54545  0.68182  1.0000
  Ag  Ag3684    1.0  0.68182  0.59091  0.63636  1.0000
  Ag  Ag3685    1.0  0.63636  0.54545  0.72727  1.0000
  Ag  Ag3686    1.0  0.63636  0.59091  0.77273  1.0000
  Ag  Ag3687    1.0  0.68182  0.54545  0.77273  1.0000
  Ag  Ag3688    1.0  0.68182  0.59091  0.72727  1.0000
  Ag  Ag3689    1.0  0.63636  0.54545  0.81818  1.0000
  Ag  Ag3690    1.0  0.63636  0.59091  0.86364  1.0000
  Ag  Ag3691    1.0  0.68182  0.54545  0.86364  1.0000
  Ag  Ag3692    1.0  0.68182  0.59091  0.81818  1.0000
  Ag  Ag3693    1.0  0.63636  0.54545  0.90909  1.0000
  Ag  Ag3694    1.0  0.63636  0.59091  0.95455  1.0000
  Ag  Ag3695    1.0  0.68182  0.54545  0.95455  1.0000
  Ag  Ag3696    1.0  0.68182  0.59091  0.90909  1.0000
  Ag  Ag3697    1.0  0.63636  0.63636  0.00000  1.0000
  Ag  Ag3698    1.0  0.63636  0.68182  0.04545  1.0000
  Ag  Ag3699    1.0  0.68182  0.63636  0.04545  1.0000
  Ag  Ag3700    1.0  0.68182  0.68182  0.00000  1.0000
  Ag  Ag3701    1.0  0.63636  0.63636  0.09091  1.0000
  Ag  Ag3702    1.0  0.63636  0.68182  0.13636  1.0000
  Ag  Ag3703    1.0  0.68182  0.63636  0.13636  1.0000
  Ag  Ag3704    1.0  0.68182  0.68182  0.09091  1.0000
  Ag  Ag3705    1.0  0.63636  0.63636  0.18182  1.0000
  Ag  Ag3706    1.0  0.63636  0.68182  0.22727  1.0000
  Ag  Ag3707    1.0  0.68182  0.63636  0.22727  1.0000
  Ag  Ag3708    1.0  0.68182  0.68182  0.18182  1.0000
  Ag  Ag3709    1.0  0.63636  0.63636  0.27273  1.0000
  Ag  Ag3710    1.0  0.63636  0.68182  0.31818  1.0000
  Ag  Ag3711    1.0  0.68182  0.63636  0.31818  1.0000
  Ag  Ag3712    1.0  0.68182  0.68182  0.27273  1.0000
  Ag  Ag3713    1.0  0.63636  0.63636  0.36364  1.0000
  Ag  Ag3714    1.0  0.63636  0.68182  0.40909  1.0000
  Ag  Ag3715    1.0  0.68182  0.63636  0.40909  1.0000
  Ag  Ag3716    1.0  0.68182  0.68182  0.36364  1.0000
  Ag  Ag3717    1.0  0.63636  0.63636  0.45455  1.0000
  Ag  Ag3718    1.0  0.63636  0.68182  0.50000  1.0000
  Ag  Ag3719    1.0  0.68182  0.63636  0.50000  1.0000
  Ag  Ag3720    1.0  0.68182  0.68182  0.45455  1.0000
  Ag  Ag3721    1.0  0.63636  0.63636  0.54545  1.0000
  Ag  Ag3722    1.0  0.63636  0.68182  0.59091  1.0000
  Ag  Ag3723    1.0  0.68182  0.63636  0.59091  1.0000
  Ag  Ag3724    1.0  0.68182  0.68182  0.54545  1.0000
  Ag  Ag3725    1.0  0.63636  0.63636  0.63636  1.0000
  Ag  Ag3726    1.0  0.63636  0.68182  0.68182  1.0000
  Ag  Ag3727    1.0  0.68182  0.63636  0.68182  1.0000
  Ag  Ag3728    1.0  0.68182  0.68182  0.63636  1.0000
  Ag  Ag3729    1.0  0.63636  0.63636  0.72727  1.0000
  Ag  Ag3730    1.0  0.63636  0.68182  0.77273  1.0000
  Ag  Ag3731    1.0  0.68182  0.63636  0.77273  1.0000
  Ag  Ag3732    1.0  0.68182  0.68182  0.72727  1.0000
  Ag  Ag3733    1.0  0.63636  0.63636  0.81818  1.0000
  Ag  Ag3734    1.0  0.63636  0.68182  0.86364  1.0000
  Ag  Ag3735    1.0  0.68182  0.63636  0.86364  1.0000
  Ag  Ag3736    1.0  0.68182  0.68182  0.81818  1.0000
  Ag  Ag3737    1.0  0.63636  0.63636  0.90909  1.0000
  Ag  Ag3738    1.0  0.63636  0.68182  0.95455  1.0000
  Ag  Ag3739    1.0  0.68182  0.63636  0.95455  1.0000
  Ag  Ag3740    1.0  0.68182  0.68182  0.90909  1.0000
  Ag  Ag3741    1.0  0.63636  0.72727  0.00000  1.0000
  Ag  Ag3742    1.0  0.63636  0.77273  0.04545  1.0000
  Ag  Ag3743    1.0  0.68182  0.72727  0.04545  1.0000
  Ag  Ag3744    1.0  0.68182  0.77273  0.00000  1.0000
  Ag  Ag3745    1.0  0.63636  0.72727  0.09091  1.0000
  Ag  Ag3746    1.0  0.63636  0.77273  0.13636  1.0000
  Ag  Ag3747    1.0  0.68182  0.72727  0.13636  1.0000
  Ag  Ag3748    1.0  0.68182  0.77273  0.09091  1.0000
  Ag  Ag3749    1.0  0.63636  0.72727  0.18182  1.0000
  Ag  Ag3750    1.0  0.63636  0.77273  0.22727  1.0000
  Ag  Ag3751    1.0  0.68182  0.72727  0.22727  1.0000
  Ag  Ag3752    1.0  0.68182  0.77273  0.18182  1.0000
  Ag  Ag3753    1.0  0.63636  0.72727  0.27273  1.0000
  Ag  Ag3754    1.0  0.63636  0.77273  0.31818  1.0000
  Ag  Ag3755    1.0  0.68182  0.72727  0.31818  1.0000
  Ag  Ag3756    1.0  0.68182  0.77273  0.27273  1.0000
  Ag  Ag3757    1.0  0.63636  0.72727  0.36364  1.0000
  Ag  Ag3758    1.0  0.63636  0.77273  0.40909  1.0000
  Ag  Ag3759    1.0  0.68182  0.72727  0.40909  1.0000
  Ag  Ag3760    1.0  0.68182  0.77273  0.36364  1.0000
  Ag  Ag3761    1.0  0.63636  0.72727  0.45455  1.0000
  Ag  Ag3762    1.0  0.63636  0.77273  0.50000  1.0000
  Ag  Ag3763    1.0  0.68182  0.72727  0.50000  1.0000
  Ag  Ag3764    1.0  0.68182  0.77273  0.45455  1.0000
  Ag  Ag3765    1.0  0.63636  0.72727  0.54545  1.0000
  Ag  Ag3766    1.0  0.63636  0.77273  0.59091  1.0000
  Ag  Ag3767    1.0  0.68182  0.72727  0.59091  1.0000
  Ag  Ag3768    1.0  0.68182  0.77273  0.54545  1.0000
  Ag  Ag3769    1.0  0.63636  0.72727  0.63636  1.0000
  Ag  Ag3770    1.0  0.63636  0.77273  0.68182  1.0000
  Ag  Ag3771    1.0  0.68182  0.72727  0.68182  1.0000
  Ag  Ag3772    1.0  0.68182  0.77273  0.63636  1.0000
  Ag  Ag3773    1.0  0.63636  0.72727  0.72727  1.0000
  Ag  Ag3774    1.0  0.63636  0.77273  0.77273  1.0000
  Ag  Ag3775    1.0  0.68182  0.72727  0.77273  1.0000
  Ag  Ag3776    1.0  0.68182  0.77273  0.72727  1.0000
  Ag  Ag3777    1.0  0.63636  0.72727  0.81818  1.0000
  Ag  Ag3778    1.0  0.63636  0.77273  0.86364  1.0000
  Ag  Ag3779    1.0  0.68182  0.72727  0.86364  1.0000
  Ag  Ag3780    1.0  0.68182  0.77273  0.81818  1.0000
  Ag  Ag3781    1.0  0.63636  0.72727  0.90909  1.0000
  Ag  Ag3782    1.0  0.63636  0.77273  0.95455  1.0000
  Ag  Ag3783    1.0  0.68182  0.72727  0.95455  1.0000
  Ag  Ag3784    1.0  0.68182  0.77273  0.90909  1.0000
  Ag  Ag3785    1.0  0.63636  0.81818  0.00000  1.0000
  Ag  Ag3786    1.0  0.63636  0.86364  0.04545  1.0000
  Ag  Ag3787    1.0  0.68182  0.81818  0.04545  1.0000
  Ag  Ag3788    1.0  0.68182  0.86364  0.00000  1.0000
  Ag  Ag3789    1.0  0.63636  0.81818  0.09091  1.0000
  Ag  Ag3790    1.0  0.63636  0.86364  0.13636  1.0000
  Ag  Ag3791    1.0  0.68182  0.81818  0.13636  1.0000
  Ag  Ag3792    1.0  0.68182  0.86364  0.09091  1.0000
  Ag  Ag3793    1.0  0.63636  0.81818  0.18182  1.0000
  Ag  Ag3794    1.0  0.63636  0.86364  0.22727  1.0000
  Ag  Ag3795    1.0  0.68182  0.81818  0.22727  1.0000
  Ag  Ag3796    1.0  0.68182  0.86364  0.18182  1.0000
  Ag  Ag3797    1.0  0.63636  0.81818  0.27273  1.0000
  Ag  Ag3798    1.0  0.63636  0.86364  0.31818  1.0000
  Ag  Ag3799    1.0  0.68182  0.81818  0.31818  1.0000
  Ag  Ag3800    1.0  0.68182  0.86364  0.27273  1.0000
  Ag  Ag3801    1.0  0.63636  0.81818  0.36364  1.0000
  Ag  Ag3802    1.0  0.63636  0.86364  0.40909  1.0000
  Ag  Ag3803    1.0  0.68182  0.81818  0.40909  1.0000
  Ag  Ag3804    1.0  0.68182  0.86364  0.36364  1.0000
  Ag  Ag3805    1.0  0.63636  0.81818  0.45455  1.0000
  Ag  Ag3806    1.0  0.63636  0.86364  0.50000  1.0000
  Ag  Ag3807    1.0  0.68182  0.81818  0.50000  1.0000
  Ag  Ag3808    1.0  0.68182  0.86364  0.45455  1.0000
  Ag  Ag3809    1.0  0.63636  0.81818  0.54545  1.0000
  Ag  Ag3810    1.0  0.63636  0.86364  0.59091  1.0000
  Ag  Ag3811    1.0  0.68182  0.81818  0.59091  1.0000
  Ag  Ag3812    1.0  0.68182  0.86364  0.54545  1.0000
  Ag  Ag3813    1.0  0.63636  0.81818  0.63636  1.0000
  Ag  Ag3814    1.0  0.63636  0.86364  0.68182  1.0000
  Ag  Ag3815    1.0  0.68182  0.81818  0.68182  1.0000
  Ag  Ag3816    1.0  0.68182  0.86364  0.63636  1.0000
  Ag  Ag3817    1.0  0.63636  0.81818  0.72727  1.0000
  Ag  Ag3818    1.0  0.63636  0.86364  0.77273  1.0000
  Ag  Ag3819    1.0  0.68182  0.81818  0.77273  1.0000
  Ag  Ag3820    1.0  0.68182  0.86364  0.72727  1.0000
  Ag  Ag3821    1.0  0.63636  0.81818  0.81818  1.0000
  Ag  Ag3822    1.0  0.63636  0.86364  0.86364  1.0000
  Ag  Ag3823    1.0  0.68182  0.81818  0.86364  1.0000
  Ag  Ag3824    1.0  0.68182  0.86364  0.81818  1.0000
  Ag  Ag3825    1.0  0.63636  0.81818  0.90909  1.0000
  Ag  Ag3826    1.0  0.63636  0.86364  0.95455  1.0000
  Ag  Ag3827    1.0  0.68182  0.81818  0.95455  1.0000
  Ag  Ag3828    1.0  0.68182  0.86364  0.90909  1.0000
  Ag  Ag3829    1.0  0.63636  0.90909  0.00000  1.0000
  Ag  Ag3830    1.0  0.63636  0.95455  0.04545  1.0000
  Ag  Ag3831    1.0  0.68182  0.90909  0.04545  1.0000
  Ag  Ag3832    1.0  0.68182  0.95455  0.00000  1.0000
  Ag  Ag3833    1.0  0.63636  0.90909  0.09091  1.0000
  Ag  Ag3834    1.0  0.63636  0.95455  0.13636  1.0000
  Ag  Ag3835    1.0  0.68182  0.90909  0.13636  1.0000
  Ag  Ag3836    1.0  0.68182  0.95455  0.09091  1.0000
  Ag  Ag3837    1.0  0.63636  0.90909  0.18182  1.0000
  Ag  Ag3838    1.0  0.63636  0.95455  0.22727  1.0000
  Ag  Ag3839    1.0  0.68182  0.90909  0.22727  1.0000
  Ag  Ag3840    1.0  0.68182  0.95455  0.18182  1.0000
  Ag  Ag3841    1.0  0.63636  0.90909  0.27273  1.0000
  Ag  Ag3842    1.0  0.63636  0.95455  0.31818  1.0000
  Ag  Ag3843    1.0  0.68182  0.90909  0.31818  1.0000
  Ag  Ag3844    1.0  0.68182  0.95455  0.27273  1.0000
  Ag  Ag3845    1.0  0.63636  0.90909  0.36364  1.0000
  Ag  Ag3846    1.0  0.63636  0.95455  0.40909  1.0000
  Ag  Ag3847    1.0  0.68182  0.90909  0.40909  1.0000
  Ag  Ag3848    1.0  0.68182  0.95455  0.36364  1.0000
  Ag  Ag3849    1.0  0.63636  0.90909  0.45455  1.0000
  Ag  Ag3850    1.0  0.63636  0.95455  0.50000  1.0000
  Ag  Ag3851    1.0  0.68182  0.90909  0.50000  1.0000
  Ag  Ag3852    1.0  0.68182  0.95455  0.45455  1.0000
  Ag  Ag3853    1.0  0.63636  0.90909  0.54545  1.0000
  Ag  Ag3854    1.0  0.63636  0.95455  0.59091  1.0000
  Ag  Ag3855    1.0  0.68182  0.90909  0.59091  1.0000
  Ag  Ag3856    1.0  0.68182  0.95455  0.54545  1.0000
  Ag  Ag3857    1.0  0.63636  0.90909  0.63636  1.0000
  Ag  Ag3858    1.0  0.63636  0.95455  0.68182  1.0000
  Ag  Ag3859    1.0  0.68182  0.90909  0.68182  1.0000
  Ag  Ag3860    1.0  0.68182  0.95455  0.63636  1.0000
  Ag  Ag3861    1.0  0.63636  0.90909  0.72727  1.0000
  Ag  Ag3862    1.0  0.63636  0.95455  0.77273  1.0000
  Ag  Ag3863    1.0  0.68182  0.90909  0.77273  1.0000
  Ag  Ag3864    1.0  0.68182  0.95455  0.72727  1.0000
  Ag  Ag3865    1.0  0.63636  0.90909  0.81818  1.0000
  Ag  Ag3866    1.0  0.63636  0.95455  0.86364  1.0000
  Ag  Ag3867    1.0  0.68182  0.90909  0.86364  1.0000
  Ag  Ag3868    1.0  0.68182  0.95455  0.81818  1.0000
  Ag  Ag3869    1.0  0.63636  0.90909  0.90909  1.0000
  Ag  Ag3870    1.0  0.63636  0.95455  0.95455  1.0000
  Ag  Ag3871    1.0  0.68182  0.90909  0.95455  1.0000
  Ag  Ag3872    1.0  0.68182  0.95455  0.90909  1.0000
  Ag  Ag3873    1.0  0.72727  0.00000  0.00000  1.0000
  Ag  Ag3874    1.0  0.72727  0.04545  0.04545  1.0000
  Ag  Ag3875    1.0  0.77273  0.00000  0.04545  1.0000
  Ag  Ag3876    1.0  0.77273  0.04545  0.00000  1.0000
  Ag  Ag3877    1.0  0.72727  0.00000  0.09091  1.0000
  Ag  Ag3878    1.0  0.72727  0.04545  0.13636  1.0000
  Ag  Ag3879    1.0  0.77273  0.00000  0.13636  1.0000
  Ag  Ag3880    1.0  0.77273  0.04545  0.09091  1.0000
  Ag  Ag3881    1.0  0.72727  0.00000  0.18182  1.0000
  Ag  Ag3882    1.0  0.72727  0.04545  0.22727  1.0000
  Ag  Ag3883    1.0  0.77273  0.00000  0.22727  1.0000
  Ag  Ag3884    1.0  0.77273  0.04545  0.18182  1.0000
  Ag  Ag3885    1.0  0.72727  0.00000  0.27273  1.0000
  Ag  Ag3886    1.0  0.72727  0.04545  0.31818  1.0000
  Ag  Ag3887    1.0  0.77273  0.00000  0.31818  1.0000
  Ag  Ag3888    1.0  0.77273  0.04545  0.27273  1.0000
  Ag  Ag3889    1.0  0.72727  0.00000  0.36364  1.0000
  Ag  Ag3890    1.0  0.72727  0.04545  0.40909  1.0000
  Ag  Ag3891    1.0  0.77273  0.00000  0.40909  1.0000
  Ag  Ag3892    1.0  0.77273  0.04545  0.36364  1.0000
  Ag  Ag3893    1.0  0.72727  0.00000  0.45455  1.0000
  Ag  Ag3894    1.0  0.72727  0.04545  0.50000  1.0000
  Ag  Ag3895    1.0  0.77273  0.00000  0.50000  1.0000
  Ag  Ag3896    1.0  0.77273  0.04545  0.45455  1.0000
  Ag  Ag3897    1.0  0.72727  0.00000  0.54545  1.0000
  Ag  Ag3898    1.0  0.72727  0.04545  0.59091  1.0000
  Ag  Ag3899    1.0  0.77273  0.00000  0.59091  1.0000
  Ag  Ag3900    1.0  0.77273  0.04545  0.54545  1.0000
  Ag  Ag3901    1.0  0.72727  0.00000  0.63636  1.0000
  Ag  Ag3902    1.0  0.72727  0.04545  0.68182  1.0000
  Ag  Ag3903    1.0  0.77273  0.00000  0.68182  1.0000
  Ag  Ag3904    1.0  0.77273  0.04545  0.63636  1.0000
  Ag  Ag3905    1.0  0.72727  0.00000  0.72727  1.0000
  Ag  Ag3906    1.0  0.72727  0.04545  0.77273  1.0000
  Ag  Ag3907    1.0  0.77273  0.00000  0.77273  1.0000
  Ag  Ag3908    1.0  0.77273  0.04545  0.72727  1.0000
  Ag  Ag3909    1.0  0.72727  0.00000  0.81818  1.0000
  Ag  Ag3910    1.0  0.72727  0.04545  0.86364  1.0000
  Ag  Ag3911    1.0  0.77273  0.00000  0.86364  1.0000
  Ag  Ag3912    1.0  0.77273  0.04545  0.81818  1.0000
  Ag  Ag3913    1.0  0.72727  0.00000  0.90909  1.0000
  Ag  Ag3914    1.0  0.72727  0.04545  0.95455  1.0000
  Ag  Ag3915    1.0  0.77273  0.00000  0.95455  1.0000
  Ag  Ag3916    1.0  0.77273  0.04545  0.90909  1.0000
  Ag  Ag3917    1.0  0.72727  0.09091  0.00000  1.0000
  Ag  Ag3918    1.0  0.72727  0.13636  0.04545  1.0000
  Ag  Ag3919    1.0  0.77273  0.09091  0.04545  1.0000
  Ag  Ag3920    1.0  0.77273  0.13636  0.00000  1.0000
  Ag  Ag3921    1.0  0.72727  0.09091  0.09091  1.0000
  Ag  Ag3922    1.0  0.72727  0.13636  0.13636  1.0000
  Ag  Ag3923    1.0  0.77273  0.09091  0.13636  1.0000
  Ag  Ag3924    1.0  0.77273  0.13636  0.09091  1.0000
  Ag  Ag3925    1.0  0.72727  0.09091  0.18182  1.0000
  Ag  Ag3926    1.0  0.72727  0.13636  0.22727  1.0000
  Ag  Ag3927    1.0  0.77273  0.09091  0.22727  1.0000
  Ag  Ag3928    1.0  0.77273  0.13636  0.18182  1.0000
  Ag  Ag3929    1.0  0.72727  0.09091  0.27273  1.0000
  Ag  Ag3930    1.0  0.72727  0.13636  0.31818  1.0000
  Ag  Ag3931    1.0  0.77273  0.09091  0.31818  1.0000
  Ag  Ag3932    1.0  0.77273  0.13636  0.27273  1.0000
  Ag  Ag3933    1.0  0.72727  0.09091  0.36364  1.0000
  Ag  Ag3934    1.0  0.72727  0.13636  0.40909  1.0000
  Ag  Ag3935    1.0  0.77273  0.09091  0.40909  1.0000
  Ag  Ag3936    1.0  0.77273  0.13636  0.36364  1.0000
  Ag  Ag3937    1.0  0.72727  0.09091  0.45455  1.0000
  Ag  Ag3938    1.0  0.72727  0.13636  0.50000  1.0000
  Ag  Ag3939    1.0  0.77273  0.09091  0.50000  1.0000
  Ag  Ag3940    1.0  0.77273  0.13636  0.45455  1.0000
  Ag  Ag3941    1.0  0.72727  0.09091  0.54545  1.0000
  Ag  Ag3942    1.0  0.72727  0.13636  0.59091  1.0000
  Ag  Ag3943    1.0  0.77273  0.09091  0.59091  1.0000
  Ag  Ag3944    1.0  0.77273  0.13636  0.54545  1.0000
  Ag  Ag3945    1.0  0.72727  0.09091  0.63636  1.0000
  Ag  Ag3946    1.0  0.72727  0.13636  0.68182  1.0000
  Ag  Ag3947    1.0  0.77273  0.09091  0.68182  1.0000
  Ag  Ag3948    1.0  0.77273  0.13636  0.63636  1.0000
  Ag  Ag3949    1.0  0.72727  0.09091  0.72727  1.0000
  Ag  Ag3950    1.0  0.72727  0.13636  0.77273  1.0000
  Ag  Ag3951    1.0  0.77273  0.09091  0.77273  1.0000
  Ag  Ag3952    1.0  0.77273  0.13636  0.72727  1.0000
  Ag  Ag3953    1.0  0.72727  0.09091  0.81818  1.0000
  Ag  Ag3954    1.0  0.72727  0.13636  0.86364  1.0000
  Ag  Ag3955    1.0  0.77273  0.09091  0.86364  1.0000
  Ag  Ag3956    1.0  0.77273  0.13636  0.81818  1.0000
  Ag  Ag3957    1.0  0.72727  0.09091  0.90909  1.0000
  Ag  Ag3958    1.0  0.72727  0.13636  0.95455  1.0000
  Ag  Ag3959    1.0  0.77273  0.09091  0.95455  1.0000
  Ag  Ag3960    1.0  0.77273  0.13636  0.90909  1.0000
  Ag  Ag3961    1.0  0.72727  0.18182  0.00000  1.0000
  Ag  Ag3962    1.0  0.72727  0.22727  0.04545  1.0000
  Ag  Ag3963    1.0  0.77273  0.18182  0.04545  1.0000
  Ag  Ag3964    1.0  0.77273  0.22727  0.00000  1.0000
  Ag  Ag3965    1.0  0.72727  0.18182  0.09091  1.0000
  Ag  Ag3966    1.0  0.72727  0.22727  0.13636  1.0000
  Ag  Ag3967    1.0  0.77273  0.18182  0.13636  1.0000
  Ag  Ag3968    1.0  0.77273  0.22727  0.09091  1.0000
  Ag  Ag3969    1.0  0.72727  0.18182  0.18182  1.0000
  Ag  Ag3970    1.0  0.72727  0.22727  0.22727  1.0000
  Ag  Ag3971    1.0  0.77273  0.18182  0.22727  1.0000
  Ag  Ag3972    1.0  0.77273  0.22727  0.18182  1.0000
  Ag  Ag3973    1.0  0.72727  0.18182  0.27273  1.0000
  Ag  Ag3974    1.0  0.72727  0.22727  0.31818  1.0000
  Ag  Ag3975    1.0  0.77273  0.18182  0.31818  1.0000
  Ag  Ag3976    1.0  0.77273  0.22727  0.27273  1.0000
  Ag  Ag3977    1.0  0.72727  0.18182  0.36364  1.0000
  Ag  Ag3978    1.0  0.72727  0.22727  0.40909  1.0000
  Ag  Ag3979    1.0  0.77273  0.18182  0.40909  1.0000
  Ag  Ag3980    1.0  0.77273  0.22727  0.36364  1.0000
  Ag  Ag3981    1.0  0.72727  0.18182  0.45455  1.0000
  Ag  Ag3982    1.0  0.72727  0.22727  0.50000  1.0000
  Ag  Ag3983    1.0  0.77273  0.18182  0.50000  1.0000
  Ag  Ag3984    1.0  0.77273  0.22727  0.45455  1.0000
  Ag  Ag3985    1.0  0.72727  0.18182  0.54545  1.0000
  Ag  Ag3986    1.0  0.72727  0.22727  0.59091  1.0000
  Ag  Ag3987    1.0  0.77273  0.18182  0.59091  1.0000
  Ag  Ag3988    1.0  0.77273  0.22727  0.54545  1.0000
  Ag  Ag3989    1.0  0.72727  0.18182  0.63636  1.0000
  Ag  Ag3990    1.0  0.72727  0.22727  0.68182  1.0000
  Ag  Ag3991    1.0  0.77273  0.18182  0.68182  1.0000
  Ag  Ag3992    1.0  0.77273  0.22727  0.63636  1.0000
  Ag  Ag3993    1.0  0.72727  0.18182  0.72727  1.0000
  Ag  Ag3994    1.0  0.72727  0.22727  0.77273  1.0000
  Ag  Ag3995    1.0  0.77273  0.18182  0.77273  1.0000
  Ag  Ag3996    1.0  0.77273  0.22727  0.72727  1.0000
  Ag  Ag3997    1.0  0.72727  0.18182  0.81818  1.0000
  Ag  Ag3998    1.0  0.72727  0.22727  0.86364  1.0000
  Ag  Ag3999    1.0  0.77273  0.18182  0.86364  1.0000
  Ag  Ag4000    1.0  0.77273  0.22727  0.81818  1.0000
  Ag  Ag4001    1.0  0.72727  0.18182  0.90909  1.0000
  Ag  Ag4002    1.0  0.72727  0.22727  0.95455  1.0000
  Ag  Ag4003    1.0  0.77273  0.18182  0.95455  1.0000
  Ag  Ag4004    1.0  0.77273  0.22727  0.90909  1.0000
  Ag  Ag4005    1.0  0.72727  0.27273  0.00000  1.0000
  Ag  Ag4006    1.0  0.72727  0.31818  0.04545  1.0000
  Ag  Ag4007    1.0  0.77273  0.27273  0.04545  1.0000
  Ag  Ag4008    1.0  0.77273  0.31818  0.00000  1.0000
  Ag  Ag4009    1.0  0.72727  0.27273  0.09091  1.0000
  Ag  Ag4010    1.0  0.72727  0.31818  0.13636  1.0000
  Ag  Ag4011    1.0  0.77273  0.27273  0.13636  1.0000
  Ag  Ag4012    1.0  0.77273  0.31818  0.09091  1.0000
  Ag  Ag4013    1.0  0.72727  0.27273  0.18182  1.0000
  Ag  Ag4014    1.0  0.72727  0.31818  0.22727  1.0000
  Ag  Ag4015    1.0  0.77273  0.27273  0.22727  1.0000
  Ag  Ag4016    1.0  0.77273  0.31818  0.18182  1.0000
  Ag  Ag4017    1.0  0.72727  0.27273  0.27273  1.0000
  Ag  Ag4018    1.0  0.72727  0.31818  0.31818  1.0000
  Ag  Ag4019    1.0  0.77273  0.27273  0.31818  1.0000
  Ag  Ag4020    1.0  0.77273  0.31818  0.27273  1.0000
  Ag  Ag4021    1.0  0.72727  0.27273  0.36364  1.0000
  Ag  Ag4022    1.0  0.72727  0.31818  0.40909  1.0000
  Ag  Ag4023    1.0  0.77273  0.27273  0.40909  1.0000
  Ag  Ag4024    1.0  0.77273  0.31818  0.36364  1.0000
  Ag  Ag4025    1.0  0.72727  0.27273  0.45455  1.0000
  Ag  Ag4026    1.0  0.72727  0.31818  0.50000  1.0000
  Ag  Ag4027    1.0  0.77273  0.27273  0.50000  1.0000
  Ag  Ag4028    1.0  0.77273  0.31818  0.45455  1.0000
  Ag  Ag4029    1.0  0.72727  0.27273  0.54545  1.0000
  Ag  Ag4030    1.0  0.72727  0.31818  0.59091  1.0000
  Ag  Ag4031    1.0  0.77273  0.27273  0.59091  1.0000
  Ag  Ag4032    1.0  0.77273  0.31818  0.54545  1.0000
  Ag  Ag4033    1.0  0.72727  0.27273  0.63636  1.0000
  Ag  Ag4034    1.0  0.72727  0.31818  0.68182  1.0000
  Ag  Ag4035    1.0  0.77273  0.27273  0.68182  1.0000
  Ag  Ag4036    1.0  0.77273  0.31818  0.63636  1.0000
  Ag  Ag4037    1.0  0.72727  0.27273  0.72727  1.0000
  Ag  Ag4038    1.0  0.72727  0.31818  0.77273  1.0000
  Ag  Ag4039    1.0  0.77273  0.27273  0.77273  1.0000
  Ag  Ag4040    1.0  0.77273  0.31818  0.72727  1.0000
  Ag  Ag4041    1.0  0.72727  0.27273  0.81818  1.0000
  Ag  Ag4042    1.0  0.72727  0.31818  0.86364  1.0000
  Ag  Ag4043    1.0  0.77273  0.27273  0.86364  1.0000
  Ag  Ag4044    1.0  0.77273  0.31818  0.81818  1.0000
  Ag  Ag4045    1.0  0.72727  0.27273  0.90909  1.0000
  Ag  Ag4046    1.0  0.72727  0.31818  0.95455  1.0000
  Ag  Ag4047    1.0  0.77273  0.27273  0.95455  1.0000
  Ag  Ag4048    1.0  0.77273  0.31818  0.90909  1.0000
  Ag  Ag4049    1.0  0.72727  0.36364  0.00000  1.0000
  Ag  Ag4050    1.0  0.72727  0.40909  0.04545  1.0000
  Ag  Ag4051    1.0  0.77273  0.36364  0.04545  1.0000
  Ag  Ag4052    1.0  0.77273  0.40909  0.00000  1.0000
  Ag  Ag4053    1.0  0.72727  0.36364  0.09091  1.0000
  Ag  Ag4054    1.0  0.72727  0.40909  0.13636  1.0000
  Ag  Ag4055    1.0  0.77273  0.36364  0.13636  1.0000
  Ag  Ag4056    1.0  0.77273  0.40909  0.09091  1.0000
  Ag  Ag4057    1.0  0.72727  0.36364  0.18182  1.0000
  Ag  Ag4058    1.0  0.72727  0.40909  0.22727  1.0000
  Ag  Ag4059    1.0  0.77273  0.36364  0.22727  1.0000
  Ag  Ag4060    1.0  0.77273  0.40909  0.18182  1.0000
  Ag  Ag4061    1.0  0.72727  0.36364  0.27273  1.0000
  Ag  Ag4062    1.0  0.72727  0.40909  0.31818  1.0000
  Ag  Ag4063    1.0  0.77273  0.36364  0.31818  1.0000
  Ag  Ag4064    1.0  0.77273  0.40909  0.27273  1.0000
  Ag  Ag4065    1.0  0.72727  0.36364  0.36364  1.0000
  Ag  Ag4066    1.0  0.72727  0.40909  0.40909  1.0000
  Ag  Ag4067    1.0  0.77273  0.36364  0.40909  1.0000
  Ag  Ag4068    1.0  0.77273  0.40909  0.36364  1.0000
  Ag  Ag4069    1.0  0.72727  0.36364  0.45455  1.0000
  Ag  Ag4070    1.0  0.72727  0.40909  0.50000  1.0000
  Ag  Ag4071    1.0  0.77273  0.36364  0.50000  1.0000
  Ag  Ag4072    1.0  0.77273  0.40909  0.45455  1.0000
  Ag  Ag4073    1.0  0.72727  0.36364  0.54545  1.0000
  Ag  Ag4074    1.0  0.72727  0.40909  0.59091  1.0000
  Ag  Ag4075    1.0  0.77273  0.36364  0.59091  1.0000
  Ag  Ag4076    1.0  0.77273  0.40909  0.54545  1.0000
  Ag  Ag4077    1.0  0.72727  0.36364  0.63636  1.0000
  Ag  Ag4078    1.0  0.72727  0.40909  0.68182  1.0000
  Ag  Ag4079    1.0  0.77273  0.36364  0.68182  1.0000
  Ag  Ag4080    1.0  0.77273  0.40909  0.63636  1.0000
  Ag  Ag4081    1.0  0.72727  0.36364  0.72727  1.0000
  Ag  Ag4082    1.0  0.72727  0.40909  0.77273  1.0000
  Ag  Ag4083    1.0  0.77273  0.36364  0.77273  1.0000
  Ag  Ag4084    1.0  0.77273  0.40909  0.72727  1.0000
  Ag  Ag4085    1.0  0.72727  0.36364  0.81818  1.0000
  Ag  Ag4086    1.0  0.72727  0.40909  0.86364  1.0000
  Ag  Ag4087    1.0  0.77273  0.36364  0.86364  1.0000
  Ag  Ag4088    1.0  0.77273  0.40909  0.81818  1.0000
  Ag  Ag4089    1.0  0.72727  0.36364  0.90909  1.0000
  Ag  Ag4090    1.0  0.72727  0.40909  0.95455  1.0000
  Ag  Ag4091    1.0  0.77273  0.36364  0.95455  1.0000
  Ag  Ag4092    1.0  0.77273  0.40909  0.90909  1.0000
  Ag  Ag4093    1.0  0.72727  0.45455  0.00000  1.0000
  Ag  Ag4094    1.0  0.72727  0.50000  0.04545  1.0000
  Ag  Ag4095    1.0  0.77273  0.45455  0.04545  1.0000
  Ag  Ag4096    1.0  0.77273  0.50000  0.00000  1.0000
  Ag  Ag4097    1.0  0.72727  0.45455  0.09091  1.0000
  Ag  Ag4098    1.0  0.72727  0.50000  0.13636  1.0000
  Ag  Ag4099    1.0  0.77273  0.45455  0.13636  1.0000
  Ag  Ag4100    1.0  0.77273  0.50000  0.09091  1.0000
  Ag  Ag4101    1.0  0.72727  0.45455  0.18182  1.0000
  Ag  Ag4102    1.0  0.72727  0.50000  0.22727  1.0000
  Ag  Ag4103    1.0  0.77273  0.45455  0.22727  1.0000
  Ag  Ag4104    1.0  0.77273  0.50000  0.18182  1.0000
  Ag  Ag4105    1.0  0.72727  0.45455  0.27273  1.0000
  Ag  Ag4106    1.0  0.72727  0.50000  0.31818  1.0000
  Ag  Ag4107    1.0  0.77273  0.45455  0.31818  1.0000
  Ag  Ag4108    1.0  0.77273  0.50000  0.27273  1.0000
  Ag  Ag4109    1.0  0.72727  0.45455  0.36364  1.0000
  Ag  Ag4110    1.0  0.72727  0.50000  0.40909  1.0000
  Ag  Ag4111    1.0  0.77273  0.45455  0.40909  1.0000
  Ag  Ag4112    1.0  0.77273  0.50000  0.36364  1.0000
  Ag  Ag4113    1.0  0.72727  0.45455  0.45455  1.0000
  Ag  Ag4114    1.0  0.72727  0.50000  0.50000  1.0000
  Ag  Ag4115    1.0  0.77273  0.45455  0.50000  1.0000
  Ag  Ag4116    1.0  0.77273  0.50000  0.45455  1.0000
  Ag  Ag4117    1.0  0.72727  0.45455  0.54545  1.0000
  Ag  Ag4118    1.0  0.72727  0.50000  0.59091  1.0000
  Ag  Ag4119    1.0  0.77273  0.45455  0.59091  1.0000
  Ag  Ag4120    1.0  0.77273  0.50000  0.54545  1.0000
  Ag  Ag4121    1.0  0.72727  0.45455  0.63636  1.0000
  Ag  Ag4122    1.0  0.72727  0.50000  0.68182  1.0000
  Ag  Ag4123    1.0  0.77273  0.45455  0.68182  1.0000
  Ag  Ag4124    1.0  0.77273  0.50000  0.63636  1.0000
  Ag  Ag4125    1.0  0.72727  0.45455  0.72727  1.0000
  Ag  Ag4126    1.0  0.72727  0.50000  0.77273  1.0000
  Ag  Ag4127    1.0  0.77273  0.45455  0.77273  1.0000
  Ag  Ag4128    1.0  0.77273  0.50000  0.72727  1.0000
  Ag  Ag4129    1.0  0.72727  0.45455  0.81818  1.0000
  Ag  Ag4130    1.0  0.72727  0.50000  0.86364  1.0000
  Ag  Ag4131    1.0  0.77273  0.45455  0.86364  1.0000
  Ag  Ag4132    1.0  0.77273  0.50000  0.81818  1.0000
  Ag  Ag4133    1.0  0.72727  0.45455  0.90909  1.0000
  Ag  Ag4134    1.0  0.72727  0.50000  0.95455  1.0000
  Ag  Ag4135    1.0  0.77273  0.45455  0.95455  1.0000
  Ag  Ag4136    1.0  0.77273  0.50000  0.90909  1.0000
  Ag  Ag4137    1.0  0.72727  0.54545  0.00000  1.0000
  Ag  Ag4138    1.0  0.72727  0.59091  0.04545  1.0000
  Ag  Ag4139    1.0  0.77273  0.54545  0.04545  1.0000
  Ag  Ag4140    1.0  0.77273  0.59091  0.00000  1.0000
  Ag  Ag4141    1.0  0.72727  0.54545  0.09091  1.0000
  Ag  Ag4142    1.0  0.72727  0.59091  0.13636  1.0000
  Ag  Ag4143    1.0  0.77273  0.54545  0.13636  1.0000
  Ag  Ag4144    1.0  0.77273  0.59091  0.09091  1.0000
  Ag  Ag4145    1.0  0.72727  0.54545  0.18182  1.0000
  Ag  Ag4146    1.0  0.72727  0.59091  0.22727  1.0000
  Ag  Ag4147    1.0  0.77273  0.54545  0.22727  1.0000
  Ag  Ag4148    1.0  0.77273  0.59091  0.18182  1.0000
  Ag  Ag4149    1.0  0.72727  0.54545  0.27273  1.0000
  Ag  Ag4150    1.0  0.72727  0.59091  0.31818  1.0000
  Ag  Ag4151    1.0  0.77273  0.54545  0.31818  1.0000
  Ag  Ag4152    1.0  0.77273  0.59091  0.27273  1.0000
  Ag  Ag4153    1.0  0.72727  0.54545  0.36364  1.0000
  Ag  Ag4154    1.0  0.72727  0.59091  0.40909  1.0000
  Ag  Ag4155    1.0  0.77273  0.54545  0.40909  1.0000
  Ag  Ag4156    1.0  0.77273  0.59091  0.36364  1.0000
  Ag  Ag4157    1.0  0.72727  0.54545  0.45455  1.0000
  Ag  Ag4158    1.0  0.72727  0.59091  0.50000  1.0000
  Ag  Ag4159    1.0  0.77273  0.54545  0.50000  1.0000
  Ag  Ag4160    1.0  0.77273  0.59091  0.45455  1.0000
  Ag  Ag4161    1.0  0.72727  0.54545  0.54545  1.0000
  Ag  Ag4162    1.0  0.72727  0.59091  0.59091  1.0000
  Ag  Ag4163    1.0  0.77273  0.54545  0.59091  1.0000
  Ag  Ag4164    1.0  0.77273  0.59091  0.54545  1.0000
  Ag  Ag4165    1.0  0.72727  0.54545  0.63636  1.0000
  Ag  Ag4166    1.0  0.72727  0.59091  0.68182  1.0000
  Ag  Ag4167    1.0  0.77273  0.54545  0.68182  1.0000
  Ag  Ag4168    1.0  0.77273  0.59091  0.63636  1.0000
  Ag  Ag4169    1.0  0.72727  0.54545  0.72727  1.0000
  Ag  Ag4170    1.0  0.72727  0.59091  0.77273  1.0000
  Ag  Ag4171    1.0  0.77273  0.54545  0.77273  1.0000
  Ag  Ag4172    1.0  0.77273  0.59091  0.72727  1.0000
  Ag  Ag4173    1.0  0.72727  0.54545  0.81818  1.0000
  Ag  Ag4174    1.0  0.72727  0.59091  0.86364  1.0000
  Ag  Ag4175    1.0  0.77273  0.54545  0.86364  1.0000
  Ag  Ag4176    1.0  0.77273  0.59091  0.81818  1.0000
  Ag  Ag4177    1.0  0.72727  0.54545  0.90909  1.0000
  Ag  Ag4178    1.0  0.72727  0.59091  0.95455  1.0000
  Ag  Ag4179    1.0  0.77273  0.54545  0.95455  1.0000
  Ag  Ag4180    1.0  0.77273  0.59091  0.90909  1.0000
  Ag  Ag4181    1.0  0.72727  0.63636  0.00000  1.0000
  Ag  Ag4182    1.0  0.72727  0.68182  0.04545  1.0000
  Ag  Ag4183    1.0  0.77273  0.63636  0.04545  1.0000
  Ag  Ag4184    1.0  0.77273  0.68182  0.00000  1.0000
  Ag  Ag4185    1.0  0.72727  0.63636  0.09091  1.0000
  Ag  Ag4186    1.0  0.72727  0.68182  0.13636  1.0000
  Ag  Ag4187    1.0  0.77273  0.63636  0.13636  1.0000
  Ag  Ag4188    1.0  0.77273  0.68182  0.09091  1.0000
  Ag  Ag4189    1.0  0.72727  0.63636  0.18182  1.0000
  Ag  Ag4190    1.0  0.72727  0.68182  0.22727  1.0000
  Ag  Ag4191    1.0  0.77273  0.63636  0.22727  1.0000
  Ag  Ag4192    1.0  0.77273  0.68182  0.18182  1.0000
  Ag  Ag4193    1.0  0.72727  0.63636  0.27273  1.0000
  Ag  Ag4194    1.0  0.72727  0.68182  0.31818  1.0000
  Ag  Ag4195    1.0  0.77273  0.63636  0.31818  1.0000
  Ag  Ag4196    1.0  0.77273  0.68182  0.27273  1.0000
  Ag  Ag4197    1.0  0.72727  0.63636  0.36364  1.0000
  Ag  Ag4198    1.0  0.72727  0.68182  0.40909  1.0000
  Ag  Ag4199    1.0  0.77273  0.63636  0.40909  1.0000
  Ag  Ag4200    1.0  0.77273  0.68182  0.36364  1.0000
  Ag  Ag4201    1.0  0.72727  0.63636  0.45455  1.0000
  Ag  Ag4202    1.0  0.72727  0.68182  0.50000  1.0000
  Ag  Ag4203    1.0  0.77273  0.63636  0.50000  1.0000
  Ag  Ag4204    1.0  0.77273  0.68182  0.45455  1.0000
  Ag  Ag4205    1.0  0.72727  0.63636  0.54545  1.0000
  Ag  Ag4206    1.0  0.72727  0.68182  0.59091  1.0000
  Ag  Ag4207    1.0  0.77273  0.63636  0.59091  1.0000
  Ag  Ag4208    1.0  0.77273  0.68182  0.54545  1.0000
  Ag  Ag4209    1.0  0.72727  0.63636  0.63636  1.0000
  Ag  Ag4210    1.0  0.72727  0.68182  0.68182  1.0000
  Ag  Ag4211    1.0  0.77273  0.63636  0.68182  1.0000
  Ag  Ag4212    1.0  0.77273  0.68182  0.63636  1.0000
  Ag  Ag4213    1.0  0.72727  0.63636  0.72727  1.0000
  Ag  Ag4214    1.0  0.72727  0.68182  0.77273  1.0000
  Ag  Ag4215    1.0  0.77273  0.63636  0.77273  1.0000
  Ag  Ag4216    1.0  0.77273  0.68182  0.72727  1.0000
  Ag  Ag4217    1.0  0.72727  0.63636  0.81818  1.0000
  Ag  Ag4218    1.0  0.72727  0.68182  0.86364  1.0000
  Ag  Ag4219    1.0  0.77273  0.63636  0.86364  1.0000
  Ag  Ag4220    1.0  0.77273  0.68182  0.81818  1.0000
  Ag  Ag4221    1.0  0.72727  0.63636  0.90909  1.0000
  Ag  Ag4222    1.0  0.72727  0.68182  0.95455  1.0000
  Ag  Ag4223    1.0  0.77273  0.63636  0.95455  1.0000
  Ag  Ag4224    1.0  0.77273  0.68182  0.90909  1.0000
  Ag  Ag4225    1.0  0.72727  0.72727  0.00000  1.0000
  Ag  Ag4226    1.0  0.72727  0.77273  0.04545  1.0000
  Ag  Ag4227    1.0  0.77273  0.72727  0.04545  1.0000
  Ag  Ag4228    1.0  0.77273  0.77273  0.00000  1.0000
  Ag  Ag4229    1.0  0.72727  0.72727  0.09091  1.0000
  Ag  Ag4230    1.0  0.72727  0.77273  0.13636  1.0000
  Ag  Ag4231    1.0  0.77273  0.72727  0.13636  1.0000
  Ag  Ag4232    1.0  0.77273  0.77273  0.09091  1.0000
  Ag  Ag4233    1.0  0.72727  0.72727  0.18182  1.0000
  Ag  Ag4234    1.0  0.72727  0.77273  0.22727  1.0000
  Ag  Ag4235    1.0  0.77273  0.72727  0.22727  1.0000
  Ag  Ag4236    1.0  0.77273  0.77273  0.18182  1.0000
  Ag  Ag4237    1.0  0.72727  0.72727  0.27273  1.0000
  Ag  Ag4238    1.0  0.72727  0.77273  0.31818  1.0000
  Ag  Ag4239    1.0  0.77273  0.72727  0.31818  1.0000
  Ag  Ag4240    1.0  0.77273  0.77273  0.27273  1.0000
  Ag  Ag4241    1.0  0.72727  0.72727  0.36364  1.0000
  Ag  Ag4242    1.0  0.72727  0.77273  0.40909  1.0000
  Ag  Ag4243    1.0  0.77273  0.72727  0.40909  1.0000
  Ag  Ag4244    1.0  0.77273  0.77273  0.36364  1.0000
  Ag  Ag4245    1.0  0.72727  0.72727  0.45455  1.0000
  Ag  Ag4246    1.0  0.72727  0.77273  0.50000  1.0000
  Ag  Ag4247    1.0  0.77273  0.72727  0.50000  1.0000
  Ag  Ag4248    1.0  0.77273  0.77273  0.45455  1.0000
  Ag  Ag4249    1.0  0.72727  0.72727  0.54545  1.0000
  Ag  Ag4250    1.0  0.72727  0.77273  0.59091  1.0000
  Ag  Ag4251    1.0  0.77273  0.72727  0.59091  1.0000
  Ag  Ag4252    1.0  0.77273  0.77273  0.54545  1.0000
  Ag  Ag4253    1.0  0.72727  0.72727  0.63636  1.0000
  Ag  Ag4254    1.0  0.72727  0.77273  0.68182  1.0000
  Ag  Ag4255    1.0  0.77273  0.72727  0.68182  1.0000
  Ag  Ag4256    1.0  0.77273  0.77273  0.63636  1.0000
  Ag  Ag4257    1.0  0.72727  0.72727  0.72727  1.0000
  Ag  Ag4258    1.0  0.72727  0.77273  0.77273  1.0000
  Ag  Ag4259    1.0  0.77273  0.72727  0.77273  1.0000
  Ag  Ag4260    1.0  0.77273  0.77273  0.72727  1.0000
  Ag  Ag4261    1.0  0.72727  0.72727  0.81818  1.0000
  Ag  Ag4262    1.0  0.72727  0.77273  0.86364  1.0000
  Ag  Ag4263    1.0  0.77273  0.72727  0.86364  1.0000
  Ag  Ag4264    1.0  0.77273  0.77273  0.81818  1.0000
  Ag  Ag4265    1.0  0.72727  0.72727  0.90909  1.0000
  Ag  Ag4266    1.0  0.72727  0.77273  0.95455  1.0000
  Ag  Ag4267    1.0  0.77273  0.72727  0.95455  1.0000
  Ag  Ag4268    1.0  0.77273  0.77273  0.90909  1.0000
  Ag  Ag4269    1.0  0.72727  0.81818  0.00000  1.0000
  Ag  Ag4270    1.0  0.72727  0.86364  0.04545  1.0000
  Ag  Ag4271    1.0  0.77273  0.81818  0.04545  1.0000
  Ag  Ag4272    1.0  0.77273  0.86364  0.00000  1.0000
  Ag  Ag4273    1.0  0.72727  0.81818  0.09091  1.0000
  Ag  Ag4274    1.0  0.72727  0.86364  0.13636  1.0000
  Ag  Ag4275    1.0  0.77273  0.81818  0.13636  1.0000
  Ag  Ag4276    1.0  0.77273  0.86364  0.09091  1.0000
  Ag  Ag4277    1.0  0.72727  0.81818  0.18182  1.0000
  Ag  Ag4278    1.0  0.72727  0.86364  0.22727  1.0000
  Ag  Ag4279    1.0  0.77273  0.81818  0.22727  1.0000
  Ag  Ag4280    1.0  0.77273  0.86364  0.18182  1.0000
  Ag  Ag4281    1.0  0.72727  0.81818  0.27273  1.0000
  Ag  Ag4282    1.0  0.72727  0.86364  0.31818  1.0000
  Ag  Ag4283    1.0  0.77273  0.81818  0.31818  1.0000
  Ag  Ag4284    1.0  0.77273  0.86364  0.27273  1.0000
  Ag  Ag4285    1.0  0.72727  0.81818  0.36364  1.0000
  Ag  Ag4286    1.0  0.72727  0.86364  0.40909  1.0000
  Ag  Ag4287    1.0  0.77273  0.81818  0.40909  1.0000
  Ag  Ag4288    1.0  0.77273  0.86364  0.36364  1.0000
  Ag  Ag4289    1.0  0.72727  0.81818  0.45455  1.0000
  Ag  Ag4290    1.0  0.72727  0.86364  0.50000  1.0000
  Ag  Ag4291    1.0  0.77273  0.81818  0.50000  1.0000
  Ag  Ag4292    1.0  0.77273  0.86364  0.45455  1.0000
  Ag  Ag4293    1.0  0.72727  0.81818  0.54545  1.0000
  Ag  Ag4294    1.0  0.72727  0.86364  0.59091  1.0000
  Ag  Ag4295    1.0  0.77273  0.81818  0.59091  1.0000
  Ag  Ag4296    1.0  0.77273  0.86364  0.54545  1.0000
  Ag  Ag4297    1.0  0.72727  0.81818  0.63636  1.0000
  Ag  Ag4298    1.0  0.72727  0.86364  0.68182  1.0000
  Ag  Ag4299    1.0  0.77273  0.81818  0.68182  1.0000
  Ag  Ag4300    1.0  0.77273  0.86364  0.63636  1.0000
  Ag  Ag4301    1.0  0.72727  0.81818  0.72727  1.0000
  Ag  Ag4302    1.0  0.72727  0.86364  0.77273  1.0000
  Ag  Ag4303    1.0  0.77273  0.81818  0.77273  1.0000
  Ag  Ag4304    1.0  0.77273  0.86364  0.72727  1.0000
  Ag  Ag4305    1.0  0.72727  0.81818  0.81818  1.0000
  Ag  Ag4306    1.0  0.72727  0.86364  0.86364  1.0000
  Ag  Ag4307    1.0  0.77273  0.81818  0.86364  1.0000
  Ag  Ag4308    1.0  0.77273  0.86364  0.81818  1.0000
  Ag  Ag4309    1.0  0.72727  0.81818  0.90909  1.0000
  Ag  Ag4310    1.0  0.72727  0.86364  0.95455  1.0000
  Ag  Ag4311    1.0  0.77273  0.81818  0.95455  1.0000
  Ag  Ag4312    1.0  0.77273  0.86364  0.90909  1.0000
  Ag  Ag4313    1.0  0.72727  0.90909  0.00000  1.0000
  Ag  Ag4314    1.0  0.72727  0.95455  0.04545  1.0000
  Ag  Ag4315    1.0  0.77273  0.90909  0.04545  1.0000
  Ag  Ag4316    1.0  0.77273  0.95455  0.00000  1.0000
  Ag  Ag4317    1.0  0.72727  0.90909  0.09091  1.0000
  Ag  Ag4318    1.0  0.72727  0.95455  0.13636  1.0000
  Ag  Ag4319    1.0  0.77273  0.90909  0.13636  1.0000
  Ag  Ag4320    1.0  0.77273  0.95455  0.09091  1.0000
  Ag  Ag4321    1.0  0.72727  0.90909  0.18182  1.0000
  Ag  Ag4322    1.0  0.72727  0.95455  0.22727  1.0000
  Ag  Ag4323    1.0  0.77273  0.90909  0.22727  1.0000
  Ag  Ag4324    1.0  0.77273  0.95455  0.18182  1.0000
  Ag  Ag4325    1.0  0.72727  0.90909  0.27273  1.0000
  Ag  Ag4326    1.0  0.72727  0.95455  0.31818  1.0000
  Ag  Ag4327    1.0  0.77273  0.90909  0.31818  1.0000
  Ag  Ag4328    1.0  0.77273  0.95455  0.27273  1.0000
  Ag  Ag4329    1.0  0.72727  0.90909  0.36364  1.0000
  Ag  Ag4330    1.0  0.72727  0.95455  0.40909  1.0000
  Ag  Ag4331    1.0  0.77273  0.90909  0.40909  1.0000
  Ag  Ag4332    1.0  0.77273  0.95455  0.36364  1.0000
  Ag  Ag4333    1.0  0.72727  0.90909  0.45455  1.0000
  Ag  Ag4334    1.0  0.72727  0.95455  0.50000  1.0000
  Ag  Ag4335    1.0  0.77273  0.90909  0.50000  1.0000
  Ag  Ag4336    1.0  0.77273  0.95455  0.45455  1.0000
  Ag  Ag4337    1.0  0.72727  0.90909  0.54545  1.0000
  Ag  Ag4338    1.0  0.72727  0.95455  0.59091  1.0000
  Ag  Ag4339    1.0  0.77273  0.90909  0.59091  1.0000
  Ag  Ag4340    1.0  0.77273  0.95455  0.54545  1.0000
  Ag  Ag4341    1.0  0.72727  0.90909  0.63636  1.0000
  Ag  Ag4342    1.0  0.72727  0.95455  0.68182  1.0000
  Ag  Ag4343    1.0  0.77273  0.90909  0.68182  1.0000
  Ag  Ag4344    1.0  0.77273  0.95455  0.63636  1.0000
  Ag  Ag4345    1.0  0.72727  0.90909  0.72727  1.0000
  Ag  Ag4346    1.0  0.72727  0.95455  0.77273  1.0000
  Ag  Ag4347    1.0  0.77273  0.90909  0.77273  1.0000
  Ag  Ag4348    1.0  0.77273  0.95455  0.72727  1.0000
  Ag  Ag4349    1.0  0.72727  0.90909  0.81818  1.0000
  Ag  Ag4350    1.0  0.72727  0.95455  0.86364  1.0000
  Ag  Ag4351    1.0  0.77273  0.90909  0.86364  1.0000
  Ag  Ag4352    1.0  0.77273  0.95455  0.81818  1.0000
  Ag  Ag4353    1.0  0.72727  0.90909  0.90909  1.0000
  Ag  Ag4354    1.0  0.72727  0.95455  0.95455  1.0000
  Ag  Ag4355    1.0  0.77273  0.90909  0.95455  1.0000
  Ag  Ag4356    1.0  0.77273  0.95455  0.90909  1.0000
  Ag  Ag4357    1.0  0.81818  0.00000  0.00000  1.0000
  Ag  Ag4358    1.0  0.81818  0.04545  0.04545  1.0000
  Ag  Ag4359    1.0  0.86364  0.00000  0.04545  1.0000
  Ag  Ag4360    1.0  0.86364  0.04545  0.00000  1.0000
  Ag  Ag4361    1.0  0.81818  0.00000  0.09091  1.0000
  Ag  Ag4362    1.0  0.81818  0.04545  0.13636  1.0000
  Ag  Ag4363    1.0  0.86364  0.00000  0.13636  1.0000
  Ag  Ag4364    1.0  0.86364  0.04545  0.09091  1.0000
  Ag  Ag4365    1.0  0.81818  0.00000  0.18182  1.0000
  Ag  Ag4366    1.0  0.81818  0.04545  0.22727  1.0000
  Ag  Ag4367    1.0  0.86364  0.00000  0.22727  1.0000
  Ag  Ag4368    1.0  0.86364  0.04545  0.18182  1.0000
  Ag  Ag4369    1.0  0.81818  0.00000  0.27273  1.0000
  Ag  Ag4370    1.0  0.81818  0.04545  0.31818  1.0000
  Ag  Ag4371    1.0  0.86364  0.00000  0.31818  1.0000
  Ag  Ag4372    1.0  0.86364  0.04545  0.27273  1.0000
  Ag  Ag4373    1.0  0.81818  0.00000  0.36364  1.0000
  Ag  Ag4374    1.0  0.81818  0.04545  0.40909  1.0000
  Ag  Ag4375    1.0  0.86364  0.00000  0.40909  1.0000
  Ag  Ag4376    1.0  0.86364  0.04545  0.36364  1.0000
  Ag  Ag4377    1.0  0.81818  0.00000  0.45455  1.0000
  Ag  Ag4378    1.0  0.81818  0.04545  0.50000  1.0000
  Ag  Ag4379    1.0  0.86364  0.00000  0.50000  1.0000
  Ag  Ag4380    1.0  0.86364  0.04545  0.45455  1.0000
  Ag  Ag4381    1.0  0.81818  0.00000  0.54545  1.0000
  Ag  Ag4382    1.0  0.81818  0.04545  0.59091  1.0000
  Ag  Ag4383    1.0  0.86364  0.00000  0.59091  1.0000
  Ag  Ag4384    1.0  0.86364  0.04545  0.54545  1.0000
  Ag  Ag4385    1.0  0.81818  0.00000  0.63636  1.0000
  Ag  Ag4386    1.0  0.81818  0.04545  0.68182  1.0000
  Ag  Ag4387    1.0  0.86364  0.00000  0.68182  1.0000
  Ag  Ag4388    1.0  0.86364  0.04545  0.63636  1.0000
  Ag  Ag4389    1.0  0.81818  0.00000  0.72727  1.0000
  Ag  Ag4390    1.0  0.81818  0.04545  0.77273  1.0000
  Ag  Ag4391    1.0  0.86364  0.00000  0.77273  1.0000
  Ag  Ag4392    1.0  0.86364  0.04545  0.72727  1.0000
  Ag  Ag4393    1.0  0.81818  0.00000  0.81818  1.0000
  Ag  Ag4394    1.0  0.81818  0.04545  0.86364  1.0000
  Ag  Ag4395    1.0  0.86364  0.00000  0.86364  1.0000
  Ag  Ag4396    1.0  0.86364  0.04545  0.81818  1.0000
  Ag  Ag4397    1.0  0.81818  0.00000  0.90909  1.0000
  Ag  Ag4398    1.0  0.81818  0.04545  0.95455  1.0000
  Ag  Ag4399    1.0  0.86364  0.00000  0.95455  1.0000
  Ag  Ag4400    1.0  0.86364  0.04545  0.90909  1.0000
  Ag  Ag4401    1.0  0.81818  0.09091  0.00000  1.0000
  Ag  Ag4402    1.0  0.81818  0.13636  0.04545  1.0000
  Ag  Ag4403    1.0  0.86364  0.09091  0.04545  1.0000
  Ag  Ag4404    1.0  0.86364  0.13636  0.00000  1.0000
  Ag  Ag4405    1.0  0.81818  0.09091  0.09091  1.0000
  Ag  Ag4406    1.0  0.81818  0.13636  0.13636  1.0000
  Ag  Ag4407    1.0  0.86364  0.09091  0.13636  1.0000
  Ag  Ag4408    1.0  0.86364  0.13636  0.09091  1.0000
  Ag  Ag4409    1.0  0.81818  0.09091  0.18182  1.0000
  Ag  Ag4410    1.0  0.81818  0.13636  0.22727  1.0000
  Ag  Ag4411    1.0  0.86364  0.09091  0.22727  1.0000
  Ag  Ag4412    1.0  0.86364  0.13636  0.18182  1.0000
  Ag  Ag4413    1.0  0.81818  0.09091  0.27273  1.0000
  Ag  Ag4414    1.0  0.81818  0.13636  0.31818  1.0000
  Ag  Ag4415    1.0  0.86364  0.09091  0.31818  1.0000
  Ag  Ag4416    1.0  0.86364  0.13636  0.27273  1.0000
  Ag  Ag4417    1.0  0.81818  0.09091  0.36364  1.0000
  Ag  Ag4418    1.0  0.81818  0.13636  0.40909  1.0000
  Ag  Ag4419    1.0  0.86364  0.09091  0.40909  1.0000
  Ag  Ag4420    1.0  0.86364  0.13636  0.36364  1.0000
  Ag  Ag4421    1.0  0.81818  0.09091  0.45455  1.0000
  Ag  Ag4422    1.0  0.81818  0.13636  0.50000  1.0000
  Ag  Ag4423    1.0  0.86364  0.09091  0.50000  1.0000
  Ag  Ag4424    1.0  0.86364  0.13636  0.45455  1.0000
  Ag  Ag4425    1.0  0.81818  0.09091  0.54545  1.0000
  Ag  Ag4426    1.0  0.81818  0.13636  0.59091  1.0000
  Ag  Ag4427    1.0  0.86364  0.09091  0.59091  1.0000
  Ag  Ag4428    1.0  0.86364  0.13636  0.54545  1.0000
  Ag  Ag4429    1.0  0.81818  0.09091  0.63636  1.0000
  Ag  Ag4430    1.0  0.81818  0.13636  0.68182  1.0000
  Ag  Ag4431    1.0  0.86364  0.09091  0.68182  1.0000
  Ag  Ag4432    1.0  0.86364  0.13636  0.63636  1.0000
  Ag  Ag4433    1.0  0.81818  0.09091  0.72727  1.0000
  Ag  Ag4434    1.0  0.81818  0.13636  0.77273  1.0000
  Ag  Ag4435    1.0  0.86364  0.09091  0.77273  1.0000
  Ag  Ag4436    1.0  0.86364  0.13636  0.72727  1.0000
  Ag  Ag4437    1.0  0.81818  0.09091  0.81818  1.0000
  Ag  Ag4438    1.0  0.81818  0.13636  0.86364  1.0000
  Ag  Ag4439    1.0  0.86364  0.09091  0.86364  1.0000
  Ag  Ag4440    1.0  0.86364  0.13636  0.81818  1.0000
  Ag  Ag4441    1.0  0.81818  0.09091  0.90909  1.0000
  Ag  Ag4442    1.0  0.81818  0.13636  0.95455  1.0000
  Ag  Ag4443    1.0  0.86364  0.09091  0.95455  1.0000
  Ag  Ag4444    1.0  0.86364  0.13636  0.90909  1.0000
  Ag  Ag4445    1.0  0.81818  0.18182  0.00000  1.0000
  Ag  Ag4446    1.0  0.81818  0.22727  0.04545  1.0000
  Ag  Ag4447    1.0  0.86364  0.18182  0.04545  1.0000
  Ag  Ag4448    1.0  0.86364  0.22727  0.00000  1.0000
  Ag  Ag4449    1.0  0.81818  0.18182  0.09091  1.0000
  Ag  Ag4450    1.0  0.81818  0.22727  0.13636  1.0000
  Ag  Ag4451    1.0  0.86364  0.18182  0.13636  1.0000
  Ag  Ag4452    1.0  0.86364  0.22727  0.09091  1.0000
  Ag  Ag4453    1.0  0.81818  0.18182  0.18182  1.0000
  Ag  Ag4454    1.0  0.81818  0.22727  0.22727  1.0000
  Ag  Ag4455    1.0  0.86364  0.18182  0.22727  1.0000
  Ag  Ag4456    1.0  0.86364  0.22727  0.18182  1.0000
  Ag  Ag4457    1.0  0.81818  0.18182  0.27273  1.0000
  Ag  Ag4458    1.0  0.81818  0.22727  0.31818  1.0000
  Ag  Ag4459    1.0  0.86364  0.18182  0.31818  1.0000
  Ag  Ag4460    1.0  0.86364  0.22727  0.27273  1.0000
  Ag  Ag4461    1.0  0.81818  0.18182  0.36364  1.0000
  Ag  Ag4462    1.0  0.81818  0.22727  0.40909  1.0000
  Ag  Ag4463    1.0  0.86364  0.18182  0.40909  1.0000
  Ag  Ag4464    1.0  0.86364  0.22727  0.36364  1.0000
  Ag  Ag4465    1.0  0.81818  0.18182  0.45455  1.0000
  Ag  Ag4466    1.0  0.81818  0.22727  0.50000  1.0000
  Ag  Ag4467    1.0  0.86364  0.18182  0.50000  1.0000
  Ag  Ag4468    1.0  0.86364  0.22727  0.45455  1.0000
  Ag  Ag4469    1.0  0.81818  0.18182  0.54545  1.0000
  Ag  Ag4470    1.0  0.81818  0.22727  0.59091  1.0000
  Ag  Ag4471    1.0  0.86364  0.18182  0.59091  1.0000
  Ag  Ag4472    1.0  0.86364  0.22727  0.54545  1.0000
  Ag  Ag4473    1.0  0.81818  0.18182  0.63636  1.0000
  Ag  Ag4474    1.0  0.81818  0.22727  0.68182  1.0000
  Ag  Ag4475    1.0  0.86364  0.18182  0.68182  1.0000
  Ag  Ag4476    1.0  0.86364  0.22727  0.63636  1.0000
  Ag  Ag4477    1.0  0.81818  0.18182  0.72727  1.0000
  Ag  Ag4478    1.0  0.81818  0.22727  0.77273  1.0000
  Ag  Ag4479    1.0  0.86364  0.18182  0.77273  1.0000
  Ag  Ag4480    1.0  0.86364  0.22727  0.72727  1.0000
  Ag  Ag4481    1.0  0.81818  0.18182  0.81818  1.0000
  Ag  Ag4482    1.0  0.81818  0.22727  0.86364  1.0000
  Ag  Ag4483    1.0  0.86364  0.18182  0.86364  1.0000
  Ag  Ag4484    1.0  0.86364  0.22727  0.81818  1.0000
  Ag  Ag4485    1.0  0.81818  0.18182  0.90909  1.0000
  Ag  Ag4486    1.0  0.81818  0.22727  0.95455  1.0000
  Ag  Ag4487    1.0  0.86364  0.18182  0.95455  1.0000
  Ag  Ag4488    1.0  0.86364  0.22727  0.90909  1.0000
  Ag  Ag4489    1.0  0.81818  0.27273  0.00000  1.0000
  Ag  Ag4490    1.0  0.81818  0.31818  0.04545  1.0000
  Ag  Ag4491    1.0  0.86364  0.27273  0.04545  1.0000
  Ag  Ag4492    1.0  0.86364  0.31818  0.00000  1.0000
  Ag  Ag4493    1.0  0.81818  0.27273  0.09091  1.0000
  Ag  Ag4494    1.0  0.81818  0.31818  0.13636  1.0000
  Ag  Ag4495    1.0  0.86364  0.27273  0.13636  1.0000
  Ag  Ag4496    1.0  0.86364  0.31818  0.09091  1.0000
  Ag  Ag4497    1.0  0.81818  0.27273  0.18182  1.0000
  Ag  Ag4498    1.0  0.81818  0.31818  0.22727  1.0000
  Ag  Ag4499    1.0  0.86364  0.27273  0.22727  1.0000
  Ag  Ag4500    1.0  0.86364  0.31818  0.18182  1.0000
  Ag  Ag4501    1.0  0.81818  0.27273  0.27273  1.0000
  Ag  Ag4502    1.0  0.81818  0.31818  0.31818  1.0000
  Ag  Ag4503    1.0  0.86364  0.27273  0.31818  1.0000
  Ag  Ag4504    1.0  0.86364  0.31818  0.27273  1.0000
  Ag  Ag4505    1.0  0.81818  0.27273  0.36364  1.0000
  Ag  Ag4506    1.0  0.81818  0.31818  0.40909  1.0000
  Ag  Ag4507    1.0  0.86364  0.27273  0.40909  1.0000
  Ag  Ag4508    1.0  0.86364  0.31818  0.36364  1.0000
  Ag  Ag4509    1.0  0.81818  0.27273  0.45455  1.0000
  Ag  Ag4510    1.0  0.81818  0.31818  0.50000  1.0000
  Ag  Ag4511    1.0  0.86364  0.27273  0.50000  1.0000
  Ag  Ag4512    1.0  0.86364  0.31818  0.45455  1.0000
  Ag  Ag4513    1.0  0.81818  0.27273  0.54545  1.0000
  Ag  Ag4514    1.0  0.81818  0.31818  0.59091  1.0000
  Ag  Ag4515    1.0  0.86364  0.27273  0.59091  1.0000
  Ag  Ag4516    1.0  0.86364  0.31818  0.54545  1.0000
  Ag  Ag4517    1.0  0.81818  0.27273  0.63636  1.0000
  Ag  Ag4518    1.0  0.81818  0.31818  0.68182  1.0000
  Ag  Ag4519    1.0  0.86364  0.27273  0.68182  1.0000
  Ag  Ag4520    1.0  0.86364  0.31818  0.63636  1.0000
  Ag  Ag4521    1.0  0.81818  0.27273  0.72727  1.0000
  Ag  Ag4522    1.0  0.81818  0.31818  0.77273  1.0000
  Ag  Ag4523    1.0  0.86364  0.27273  0.77273  1.0000
  Ag  Ag4524    1.0  0.86364  0.31818  0.72727  1.0000
  Ag  Ag4525    1.0  0.81818  0.27273  0.81818  1.0000
  Ag  Ag4526    1.0  0.81818  0.31818  0.86364  1.0000
  Ag  Ag4527    1.0  0.86364  0.27273  0.86364  1.0000
  Ag  Ag4528    1.0  0.86364  0.31818  0.81818  1.0000
  Ag  Ag4529    1.0  0.81818  0.27273  0.90909  1.0000
  Ag  Ag4530    1.0  0.81818  0.31818  0.95455  1.0000
  Ag  Ag4531    1.0  0.86364  0.27273  0.95455  1.0000
  Ag  Ag4532    1.0  0.86364  0.31818  0.90909  1.0000
  Ag  Ag4533    1.0  0.81818  0.36364  0.00000  1.0000
  Ag  Ag4534    1.0  0.81818  0.40909  0.04545  1.0000
  Ag  Ag4535    1.0  0.86364  0.36364  0.04545  1.0000
  Ag  Ag4536    1.0  0.86364  0.40909  0.00000  1.0000
  Ag  Ag4537    1.0  0.81818  0.36364  0.09091  1.0000
  Ag  Ag4538    1.0  0.81818  0.40909  0.13636  1.0000
  Ag  Ag4539    1.0  0.86364  0.36364  0.13636  1.0000
  Ag  Ag4540    1.0  0.86364  0.40909  0.09091  1.0000
  Ag  Ag4541    1.0  0.81818  0.36364  0.18182  1.0000
  Ag  Ag4542    1.0  0.81818  0.40909  0.22727  1.0000
  Ag  Ag4543    1.0  0.86364  0.36364  0.22727  1.0000
  Ag  Ag4544    1.0  0.86364  0.40909  0.18182  1.0000
  Ag  Ag4545    1.0  0.81818  0.36364  0.27273  1.0000
  Ag  Ag4546    1.0  0.81818  0.40909  0.31818  1.0000
  Ag  Ag4547    1.0  0.86364  0.36364  0.31818  1.0000
  Ag  Ag4548    1.0  0.86364  0.40909  0.27273  1.0000
  Ag  Ag4549    1.0  0.81818  0.36364  0.36364  1.0000
  Ag  Ag4550    1.0  0.81818  0.40909  0.40909  1.0000
  Ag  Ag4551    1.0  0.86364  0.36364  0.40909  1.0000
  Ag  Ag4552    1.0  0.86364  0.40909  0.36364  1.0000
  Ag  Ag4553    1.0  0.81818  0.36364  0.45455  1.0000
  Ag  Ag4554    1.0  0.81818  0.40909  0.50000  1.0000
  Ag  Ag4555    1.0  0.86364  0.36364  0.50000  1.0000
  Ag  Ag4556    1.0  0.86364  0.40909  0.45455  1.0000
  Ag  Ag4557    1.0  0.81818  0.36364  0.54545  1.0000
  Ag  Ag4558    1.0  0.81818  0.40909  0.59091  1.0000
  Ag  Ag4559    1.0  0.86364  0.36364  0.59091  1.0000
  Ag  Ag4560    1.0  0.86364  0.40909  0.54545  1.0000
  Ag  Ag4561    1.0  0.81818  0.36364  0.63636  1.0000
  Ag  Ag4562    1.0  0.81818  0.40909  0.68182  1.0000
  Ag  Ag4563    1.0  0.86364  0.36364  0.68182  1.0000
  Ag  Ag4564    1.0  0.86364  0.40909  0.63636  1.0000
  Ag  Ag4565    1.0  0.81818  0.36364  0.72727  1.0000
  Ag  Ag4566    1.0  0.81818  0.40909  0.77273  1.0000
  Ag  Ag4567    1.0  0.86364  0.36364  0.77273  1.0000
  Ag  Ag4568    1.0  0.86364  0.40909  0.72727  1.0000
  Ag  Ag4569    1.0  0.81818  0.36364  0.81818  1.0000
  Ag  Ag4570    1.0  0.81818  0.40909  0.86364  1.0000
  Ag  Ag4571    1.0  0.86364  0.36364  0.86364  1.0000
  Ag  Ag4572    1.0  0.86364  0.40909  0.81818  1.0000
  Ag  Ag4573    1.0  0.81818  0.36364  0.90909  1.0000
  Ag  Ag4574    1.0  0.81818  0.40909  0.95455  1.0000
  Ag  Ag4575    1.0  0.86364  0.36364  0.95455  1.0000
  Ag  Ag4576    1.0  0.86364  0.40909  0.90909  1.0000
  Ag  Ag4577    1.0  0.81818  0.45455  0.00000  1.0000
  Ag  Ag4578    1.0  0.81818  0.50000  0.04545  1.0000
  Ag  Ag4579    1.0  0.86364  0.45455  0.04545  1.0000
  Ag  Ag4580    1.0  0.86364  0.50000  0.00000  1.0000
  Ag  Ag4581    1.0  0.81818  0.45455  0.09091  1.0000
  Ag  Ag4582    1.0  0.81818  0.50000  0.13636  1.0000
  Ag  Ag4583    1.0  0.86364  0.45455  0.13636  1.0000
  Ag  Ag4584    1.0  0.86364  0.50000  0.09091  1.0000
  Ag  Ag4585    1.0  0.81818  0.45455  0.18182  1.0000
  Ag  Ag4586    1.0  0.81818  0.50000  0.22727  1.0000
  Ag  Ag4587    1.0  0.86364  0.45455  0.22727  1.0000
  Ag  Ag4588    1.0  0.86364  0.50000  0.18182  1.0000
  Ag  Ag4589    1.0  0.81818  0.45455  0.27273  1.0000
  Ag  Ag4590    1.0  0.81818  0.50000  0.31818  1.0000
  Ag  Ag4591    1.0  0.86364  0.45455  0.31818  1.0000
  Ag  Ag4592    1.0  0.86364  0.50000  0.27273  1.0000
  Ag  Ag4593    1.0  0.81818  0.45455  0.36364  1.0000
  Ag  Ag4594    1.0  0.81818  0.50000  0.40909  1.0000
  Ag  Ag4595    1.0  0.86364  0.45455  0.40909  1.0000
  Ag  Ag4596    1.0  0.86364  0.50000  0.36364  1.0000
  Ag  Ag4597    1.0  0.81818  0.45455  0.45455  1.0000
  Ag  Ag4598    1.0  0.81818  0.50000  0.50000  1.0000
  Ag  Ag4599    1.0  0.86364  0.45455  0.50000  1.0000
  Ag  Ag4600    1.0  0.86364  0.50000  0.45455  1.0000
  Ag  Ag4601    1.0  0.81818  0.45455  0.54545  1.0000
  Ag  Ag4602    1.0  0.81818  0.50000  0.59091  1.0000
  Ag  Ag4603    1.0  0.86364  0.45455  0.59091  1.0000
  Ag  Ag4604    1.0  0.86364  0.50000  0.54545  1.0000
  Ag  Ag4605    1.0  0.81818  0.45455  0.63636  1.0000
  Ag  Ag4606    1.0  0.81818  0.50000  0.68182  1.0000
  Ag  Ag4607    1.0  0.86364  0.45455  0.68182  1.0000
  Ag  Ag4608    1.0  0.86364  0.50000  0.63636  1.0000
  Ag  Ag4609    1.0  0.81818  0.45455  0.72727  1.0000
  Ag  Ag4610    1.0  0.81818  0.50000  0.77273  1.0000
  Ag  Ag4611    1.0  0.86364  0.45455  0.77273  1.0000
  Ag  Ag4612    1.0  0.86364  0.50000  0.72727  1.0000
  Ag  Ag4613    1.0  0.81818  0.45455  0.81818  1.0000
  Ag  Ag4614    1.0  0.81818  0.50000  0.86364  1.0000
  Ag  Ag4615    1.0  0.86364  0.45455  0.86364  1.0000
  Ag  Ag4616    1.0  0.86364  0.50000  0.81818  1.0000
  Ag  Ag4617    1.0  0.81818  0.45455  0.90909  1.0000
  Ag  Ag4618    1.0  0.81818  0.50000  0.95455  1.0000
  Ag  Ag4619    1.0  0.86364  0.45455  0.95455  1.0000
  Ag  Ag4620    1.0  0.86364  0.50000  0.90909  1.0000
  Ag  Ag4621    1.0  0.81818  0.54545  0.00000  1.0000
  Ag  Ag4622    1.0  0.81818  0.59091  0.04545  1.0000
  Ag  Ag4623    1.0  0.86364  0.54545  0.04545  1.0000
  Ag  Ag4624    1.0  0.86364  0.59091  0.00000  1.0000
  Ag  Ag4625    1.0  0.81818  0.54545  0.09091  1.0000
  Ag  Ag4626    1.0  0.81818  0.59091  0.13636  1.0000
  Ag  Ag4627    1.0  0.86364  0.54545  0.13636  1.0000
  Ag  Ag4628    1.0  0.86364  0.59091  0.09091  1.0000
  Ag  Ag4629    1.0  0.81818  0.54545  0.18182  1.0000
  Ag  Ag4630    1.0  0.81818  0.59091  0.22727  1.0000
  Ag  Ag4631    1.0  0.86364  0.54545  0.22727  1.0000
  Ag  Ag4632    1.0  0.86364  0.59091  0.18182  1.0000
  Ag  Ag4633    1.0  0.81818  0.54545  0.27273  1.0000
  Ag  Ag4634    1.0  0.81818  0.59091  0.31818  1.0000
  Ag  Ag4635    1.0  0.86364  0.54545  0.31818  1.0000
  Ag  Ag4636    1.0  0.86364  0.59091  0.27273  1.0000
  Ag  Ag4637    1.0  0.81818  0.54545  0.36364  1.0000
  Ag  Ag4638    1.0  0.81818  0.59091  0.40909  1.0000
  Ag  Ag4639    1.0  0.86364  0.54545  0.40909  1.0000
  Ag  Ag4640    1.0  0.86364  0.59091  0.36364  1.0000
  Ag  Ag4641    1.0  0.81818  0.54545  0.45455  1.0000
  Ag  Ag4642    1.0  0.81818  0.59091  0.50000  1.0000
  Ag  Ag4643    1.0  0.86364  0.54545  0.50000  1.0000
  Ag  Ag4644    1.0  0.86364  0.59091  0.45455  1.0000
  Ag  Ag4645    1.0  0.81818  0.54545  0.54545  1.0000
  Ag  Ag4646    1.0  0.81818  0.59091  0.59091  1.0000
  Ag  Ag4647    1.0  0.86364  0.54545  0.59091  1.0000
  Ag  Ag4648    1.0  0.86364  0.59091  0.54545  1.0000
  Ag  Ag4649    1.0  0.81818  0.54545  0.63636  1.0000
  Ag  Ag4650    1.0  0.81818  0.59091  0.68182  1.0000
  Ag  Ag4651    1.0  0.86364  0.54545  0.68182  1.0000
  Ag  Ag4652    1.0  0.86364  0.59091  0.63636  1.0000
  Ag  Ag4653    1.0  0.81818  0.54545  0.72727  1.0000
  Ag  Ag4654    1.0  0.81818  0.59091  0.77273  1.0000
  Ag  Ag4655    1.0  0.86364  0.54545  0.77273  1.0000
  Ag  Ag4656    1.0  0.86364  0.59091  0.72727  1.0000
  Ag  Ag4657    1.0  0.81818  0.54545  0.81818  1.0000
  Ag  Ag4658    1.0  0.81818  0.59091  0.86364  1.0000
  Ag  Ag4659    1.0  0.86364  0.54545  0.86364  1.0000
  Ag  Ag4660    1.0  0.86364  0.59091  0.81818  1.0000
  Ag  Ag4661    1.0  0.81818  0.54545  0.90909  1.0000
  Ag  Ag4662    1.0  0.81818  0.59091  0.95455  1.0000
  Ag  Ag4663    1.0  0.86364  0.54545  0.95455  1.0000
  Ag  Ag4664    1.0  0.86364  0.59091  0.90909  1.0000
  Ag  Ag4665    1.0  0.81818  0.63636  0.00000  1.0000
  Ag  Ag4666    1.0  0.81818  0.68182  0.04545  1.0000
  Ag  Ag4667    1.0  0.86364  0.63636  0.04545  1.0000
  Ag  Ag4668    1.0  0.86364  0.68182  0.00000  1.0000
  Ag  Ag4669    1.0  0.81818  0.63636  0.09091  1.0000
  Ag  Ag4670    1.0  0.81818  0.68182  0.13636  1.0000
  Ag  Ag4671    1.0  0.86364  0.63636  0.13636  1.0000
  Ag  Ag4672    1.0  0.86364  0.68182  0.09091  1.0000
  Ag  Ag4673    1.0  0.81818  0.63636  0.18182  1.0000
  Ag  Ag4674    1.0  0.81818  0.68182  0.22727  1.0000
  Ag  Ag4675    1.0  0.86364  0.63636  0.22727  1.0000
  Ag  Ag4676    1.0  0.86364  0.68182  0.18182  1.0000
  Ag  Ag4677    1.0  0.81818  0.63636  0.27273  1.0000
  Ag  Ag4678    1.0  0.81818  0.68182  0.31818  1.0000
  Ag  Ag4679    1.0  0.86364  0.63636  0.31818  1.0000
  Ag  Ag4680    1.0  0.86364  0.68182  0.27273  1.0000
  Ag  Ag4681    1.0  0.81818  0.63636  0.36364  1.0000
  Ag  Ag4682    1.0  0.81818  0.68182  0.40909  1.0000
  Ag  Ag4683    1.0  0.86364  0.63636  0.40909  1.0000
  Ag  Ag4684    1.0  0.86364  0.68182  0.36364  1.0000
  Ag  Ag4685    1.0  0.81818  0.63636  0.45455  1.0000
  Ag  Ag4686    1.0  0.81818  0.68182  0.50000  1.0000
  Ag  Ag4687    1.0  0.86364  0.63636  0.50000  1.0000
  Ag  Ag4688    1.0  0.86364  0.68182  0.45455  1.0000
  Ag  Ag4689    1.0  0.81818  0.63636  0.54545  1.0000
  Ag  Ag4690    1.0  0.81818  0.68182  0.59091  1.0000
  Ag  Ag4691    1.0  0.86364  0.63636  0.59091  1.0000
  Ag  Ag4692    1.0  0.86364  0.68182  0.54545  1.0000
  Ag  Ag4693    1.0  0.81818  0.63636  0.63636  1.0000
  Ag  Ag4694    1.0  0.81818  0.68182  0.68182  1.0000
  Ag  Ag4695    1.0  0.86364  0.63636  0.68182  1.0000
  Ag  Ag4696    1.0  0.86364  0.68182  0.63636  1.0000
  Ag  Ag4697    1.0  0.81818  0.63636  0.72727  1.0000
  Ag  Ag4698    1.0  0.81818  0.68182  0.77273  1.0000
  Ag  Ag4699    1.0  0.86364  0.63636  0.77273  1.0000
  Ag  Ag4700    1.0  0.86364  0.68182  0.72727  1.0000
  Ag  Ag4701    1.0  0.81818  0.63636  0.81818  1.0000
  Ag  Ag4702    1.0  0.81818  0.68182  0.86364  1.0000
  Ag  Ag4703    1.0  0.86364  0.63636  0.86364  1.0000
  Ag  Ag4704    1.0  0.86364  0.68182  0.81818  1.0000
  Ag  Ag4705    1.0  0.81818  0.63636  0.90909  1.0000
  Ag  Ag4706    1.0  0.81818  0.68182  0.95455  1.0000
  Ag  Ag4707    1.0  0.86364  0.63636  0.95455  1.0000
  Ag  Ag4708    1.0  0.86364  0.68182  0.90909  1.0000
  Ag  Ag4709    1.0  0.81818  0.72727  0.00000  1.0000
  Ag  Ag4710    1.0  0.81818  0.77273  0.04545  1.0000
  Ag  Ag4711    1.0  0.86364  0.72727  0.04545  1.0000
  Ag  Ag4712    1.0  0.86364  0.77273  0.00000  1.0000
  Ag  Ag4713    1.0  0.81818  0.72727  0.09091  1.0000
  Ag  Ag4714    1.0  0.81818  0.77273  0.13636  1.0000
  Ag  Ag4715    1.0  0.86364  0.72727  0.13636  1.0000
  Ag  Ag4716    1.0  0.86364  0.77273  0.09091  1.0000
  Ag  Ag4717    1.0  0.81818  0.72727  0.18182  1.0000
  Ag  Ag4718    1.0  0.81818  0.77273  0.22727  1.0000
  Ag  Ag4719    1.0  0.86364  0.72727  0.22727  1.0000
  Ag  Ag4720    1.0  0.86364  0.77273  0.18182  1.0000
  Ag  Ag4721    1.0  0.81818  0.72727  0.27273  1.0000
  Ag  Ag4722    1.0  0.81818  0.77273  0.31818  1.0000
  Ag  Ag4723    1.0  0.86364  0.72727  0.31818  1.0000
  Ag  Ag4724    1.0  0.86364  0.77273  0.27273  1.0000
  Ag  Ag4725    1.0  0.81818  0.72727  0.36364  1.0000
  Ag  Ag4726    1.0  0.81818  0.77273  0.40909  1.0000
  Ag  Ag4727    1.0  0.86364  0.72727  0.40909  1.0000
  Ag  Ag4728    1.0  0.86364  0.77273  0.36364  1.0000
  Ag  Ag4729    1.0  0.81818  0.72727  0.45455  1.0000
  Ag  Ag4730    1.0  0.81818  0.77273  0.50000  1.0000
  Ag  Ag4731    1.0  0.86364  0.72727  0.50000  1.0000
  Ag  Ag4732    1.0  0.86364  0.77273  0.45455  1.0000
  Ag  Ag4733    1.0  0.81818  0.72727  0.54545  1.0000
  Ag  Ag4734    1.0  0.81818  0.77273  0.59091  1.0000
  Ag  Ag4735    1.0  0.86364  0.72727  0.59091  1.0000
  Ag  Ag4736    1.0  0.86364  0.77273  0.54545  1.0000
  Ag  Ag4737    1.0  0.81818  0.72727  0.63636  1.0000
  Ag  Ag4738    1.0  0.81818  0.77273  0.68182  1.0000
  Ag  Ag4739    1.0  0.86364  0.72727  0.68182  1.0000
  Ag  Ag4740    1.0  0.86364  0.77273  0.63636  1.0000
  Ag  Ag4741    1.0  0.81818  0.72727  0.72727  1.0000
  Ag  Ag4742    1.0  0.81818  0.77273  0.77273  1.0000
  Ag  Ag4743    1.0  0.86364  0.72727  0.77273  1.0000
  Ag  Ag4744    1.0  0.86364  0.77273  0.72727  1.0000
  Ag  Ag4745    1.0  0.81818  0.72727  0.81818  1.0000
  Ag  Ag4746    1.0  0.81818  0.77273  0.86364  1.0000
  Ag  Ag4747    1.0  0.86364  0.72727  0.86364  1.0000
  Ag  Ag4748    1.0  0.86364  0.77273  0.81818  1.0000
  Ag  Ag4749    1.0  0.81818  0.72727  0.90909  1.0000
  Ag  Ag4750    1.0  0.81818  0.77273  0.95455  1.0000
  Ag  Ag4751    1.0  0.86364  0.72727  0.95455  1.0000
  Ag  Ag4752    1.0  0.86364  0.77273  0.90909  1.0000
  Ag  Ag4753    1.0  0.81818  0.81818  0.00000  1.0000
  Ag  Ag4754    1.0  0.81818  0.86364  0.04545  1.0000
  Ag  Ag4755    1.0  0.86364  0.81818  0.04545  1.0000
  Ag  Ag4756    1.0  0.86364  0.86364  0.00000  1.0000
  Ag  Ag4757    1.0  0.81818  0.81818  0.09091  1.0000
  Ag  Ag4758    1.0  0.81818  0.86364  0.13636  1.0000
  Ag  Ag4759    1.0  0.86364  0.81818  0.13636  1.0000
  Ag  Ag4760    1.0  0.86364  0.86364  0.09091  1.0000
  Ag  Ag4761    1.0  0.81818  0.81818  0.18182  1.0000
  Ag  Ag4762    1.0  0.81818  0.86364  0.22727  1.0000
  Ag  Ag4763    1.0  0.86364  0.81818  0.22727  1.0000
  Ag  Ag4764    1.0  0.86364  0.86364  0.18182  1.0000
  Ag  Ag4765    1.0  0.81818  0.81818  0.27273  1.0000
  Ag  Ag4766    1.0  0.81818  0.86364  0.31818  1.0000
  Ag  Ag4767    1.0  0.86364  0.81818  0.31818  1.0000
  Ag  Ag4768    1.0  0.86364  0.86364  0.27273  1.0000
  Ag  Ag4769    1.0  0.81818  0.81818  0.36364  1.0000
  Ag  Ag4770    1.0  0.81818  0.86364  0.40909  1.0000
  Ag  Ag4771    1.0  0.86364  0.81818  0.40909  1.0000
  Ag  Ag4772    1.0  0.86364  0.86364  0.36364  1.0000
  Ag  Ag4773    1.0  0.81818  0.81818  0.45455  1.0000
  Ag  Ag4774    1.0  0.81818  0.86364  0.50000  1.0000
  Ag  Ag4775    1.0  0.86364  0.81818  0.50000  1.0000
  Ag  Ag4776    1.0  0.86364  0.86364  0.45455  1.0000
  Ag  Ag4777    1.0  0.81818  0.81818  0.54545  1.0000
  Ag  Ag4778    1.0  0.81818  0.86364  0.59091  1.0000
  Ag  Ag4779    1.0  0.86364  0.81818  0.59091  1.0000
  Ag  Ag4780    1.0  0.86364  0.86364  0.54545  1.0000
  Ag  Ag4781    1.0  0.81818  0.81818  0.63636  1.0000
  Ag  Ag4782    1.0  0.81818  0.86364  0.68182  1.0000
  Ag  Ag4783    1.0  0.86364  0.81818  0.68182  1.0000
  Ag  Ag4784    1.0  0.86364  0.86364  0.63636  1.0000
  Ag  Ag4785    1.0  0.81818  0.81818  0.72727  1.0000
  Ag  Ag4786    1.0  0.81818  0.86364  0.77273  1.0000
  Ag  Ag4787    1.0  0.86364  0.81818  0.77273  1.0000
  Ag  Ag4788    1.0  0.86364  0.86364  0.72727  1.0000
  Ag  Ag4789    1.0  0.81818  0.81818  0.81818  1.0000
  Ag  Ag4790    1.0  0.81818  0.86364  0.86364  1.0000
  Ag  Ag4791    1.0  0.86364  0.81818  0.86364  1.0000
  Ag  Ag4792    1.0  0.86364  0.86364  0.81818  1.0000
  Ag  Ag4793    1.0  0.81818  0.81818  0.90909  1.0000
  Ag  Ag4794    1.0  0.81818  0.86364  0.95455  1.0000
  Ag  Ag4795    1.0  0.86364  0.81818  0.95455  1.0000
  Ag  Ag4796    1.0  0.86364  0.86364  0.90909  1.0000
  Ag  Ag4797    1.0  0.81818  0.90909  0.00000  1.0000
  Ag  Ag4798    1.0  0.81818  0.95455  0.04545  1.0000
  Ag  Ag4799    1.0  0.86364  0.90909  0.04545  1.0000
  Ag  Ag4800    1.0  0.86364  0.95455  0.00000  1.0000
  Ag  Ag4801    1.0  0.81818  0.90909  0.09091  1.0000
  Ag  Ag4802    1.0  0.81818  0.95455  0.13636  1.0000
  Ag  Ag4803    1.0  0.86364  0.90909  0.13636  1.0000
  Ag  Ag4804    1.0  0.86364  0.95455  0.09091  1.0000
  Ag  Ag4805    1.0  0.81818  0.90909  0.18182  1.0000
  Ag  Ag4806    1.0  0.81818  0.95455  0.22727  1.0000
  Ag  Ag4807    1.0  0.86364  0.90909  0.22727  1.0000
  Ag  Ag4808    1.0  0.86364  0.95455  0.18182  1.0000
  Ag  Ag4809    1.0  0.81818  0.90909  0.27273  1.0000
  Ag  Ag4810    1.0  0.81818  0.95455  0.31818  1.0000
  Ag  Ag4811    1.0  0.86364  0.90909  0.31818  1.0000
  Ag  Ag4812    1.0  0.86364  0.95455  0.27273  1.0000
  Ag  Ag4813    1.0  0.81818  0.90909  0.36364  1.0000
  Ag  Ag4814    1.0  0.81818  0.95455  0.40909  1.0000
  Ag  Ag4815    1.0  0.86364  0.90909  0.40909  1.0000
  Ag  Ag4816    1.0  0.86364  0.95455  0.36364  1.0000
  Ag  Ag4817    1.0  0.81818  0.90909  0.45455  1.0000
  Ag  Ag4818    1.0  0.81818  0.95455  0.50000  1.0000
  Ag  Ag4819    1.0  0.86364  0.90909  0.50000  1.0000
  Ag  Ag4820    1.0  0.86364  0.95455  0.45455  1.0000
  Ag  Ag4821    1.0  0.81818  0.90909  0.54545  1.0000
  Ag  Ag4822    1.0  0.81818  0.95455  0.59091  1.0000
  Ag  Ag4823    1.0  0.86364  0.90909  0.59091  1.0000
  Ag  Ag4824    1.0  0.86364  0.95455  0.54545  1.0000
  Ag  Ag4825    1.0  0.81818  0.90909  0.63636  1.0000
  Ag  Ag4826    1.0  0.81818  0.95455  0.68182  1.0000
  Ag  Ag4827    1.0  0.86364  0.90909  0.68182  1.0000
  Ag  Ag4828    1.0  0.86364  0.95455  0.63636  1.0000
  Ag  Ag4829    1.0  0.81818  0.90909  0.72727  1.0000
  Ag  Ag4830    1.0  0.81818  0.95455  0.77273  1.0000
  Ag  Ag4831    1.0  0.86364  0.90909  0.77273  1.0000
  Ag  Ag4832    1.0  0.86364  0.95455  0.72727  1.0000
  Ag  Ag4833    1.0  0.81818  0.90909  0.81818  1.0000
  Ag  Ag4834    1.0  0.81818  0.95455  0.86364  1.0000
  Ag  Ag4835    1.0  0.86364  0.90909  0.86364  1.0000
  Ag  Ag4836    1.0  0.86364  0.95455  0.81818  1.0000
  Ag  Ag4837    1.0  0.81818  0.90909  0.90909  1.0000
  Ag  Ag4838    1.0  0.81818  0.95455  0.95455  1.0000
  Ag  Ag4839    1.0  0.86364  0.90909  0.95455  1.0000
  Ag  Ag4840    1.0  0.86364  0.95455  0.90909  1.0000
  Ag  Ag4841    1.0  0.90909  0.00000  0.00000  1.0000
  Ag  Ag4842    1.0  0.90909  0.04545  0.04545  1.0000
  Ag  Ag4843    1.0  0.95455  0.00000  0.04545  1.0000
  Ag  Ag4844    1.0  0.95455  0.04545  0.00000  1.0000
  Ag  Ag4845    1.0  0.90909  0.00000  0.09091  1.0000
  Ag  Ag4846    1.0  0.90909  0.04545  0.13636  1.0000
  Ag  Ag4847    1.0  0.95455  0.00000  0.13636  1.0000
  Ag  Ag4848    1.0  0.95455  0.04545  0.09091  1.0000
  Ag  Ag4849    1.0  0.90909  0.00000  0.18182  1.0000
  Ag  Ag4850    1.0  0.90909  0.04545  0.22727  1.0000
  Ag  Ag4851    1.0  0.95455  0.00000  0.22727  1.0000
  Ag  Ag4852    1.0  0.95455  0.04545  0.18182  1.0000
  Ag  Ag4853    1.0  0.90909  0.00000  0.27273  1.0000
  Ag  Ag4854    1.0  0.90909  0.04545  0.31818  1.0000
  Ag  Ag4855    1.0  0.95455  0.00000  0.31818  1.0000
  Ag  Ag4856    1.0  0.95455  0.04545  0.27273  1.0000
  Ag  Ag4857    1.0  0.90909  0.00000  0.36364  1.0000
  Ag  Ag4858    1.0  0.90909  0.04545  0.40909  1.0000
  Ag  Ag4859    1.0  0.95455  0.00000  0.40909  1.0000
  Ag  Ag4860    1.0  0.95455  0.04545  0.36364  1.0000
  Ag  Ag4861    1.0  0.90909  0.00000  0.45455  1.0000
  Ag  Ag4862    1.0  0.90909  0.04545  0.50000  1.0000
  Ag  Ag4863    1.0  0.95455  0.00000  0.50000  1.0000
  Ag  Ag4864    1.0  0.95455  0.04545  0.45455  1.0000
  Ag  Ag4865    1.0  0.90909  0.00000  0.54545  1.0000
  Ag  Ag4866    1.0  0.90909  0.04545  0.59091  1.0000
  Ag  Ag4867    1.0  0.95455  0.00000  0.59091  1.0000
  Ag  Ag4868    1.0  0.95455  0.04545  0.54545  1.0000
  Ag  Ag4869    1.0  0.90909  0.00000  0.63636  1.0000
  Ag  Ag4870    1.0  0.90909  0.04545  0.68182  1.0000
  Ag  Ag4871    1.0  0.95455  0.00000  0.68182  1.0000
  Ag  Ag4872    1.0  0.95455  0.04545  0.63636  1.0000
  Ag  Ag4873    1.0  0.90909  0.00000  0.72727  1.0000
  Ag  Ag4874    1.0  0.90909  0.04545  0.77273  1.0000
  Ag  Ag4875    1.0  0.95455  0.00000  0.77273  1.0000
  Ag  Ag4876    1.0  0.95455  0.04545  0.72727  1.0000
  Ag  Ag4877    1.0  0.90909  0.00000  0.81818  1.0000
  Ag  Ag4878    1.0  0.90909  0.04545  0.86364  1.0000
  Ag  Ag4879    1.0  0.95455  0.00000  0.86364  1.0000
  Ag  Ag4880    1.0  0.95455  0.04545  0.81818  1.0000
  Ag  Ag4881    1.0  0.90909  0.00000  0.90909  1.0000
  Ag  Ag4882    1.0  0.90909  0.04545  0.95455  1.0000
  Ag  Ag4883    1.0  0.95455  0.00000  0.95455  1.0000
  Ag  Ag4884    1.0  0.95455  0.04545  0.90909  1.0000
  Ag  Ag4885    1.0  0.90909  0.09091  0.00000  1.0000
  Ag  Ag4886    1.0  0.90909  0.13636  0.04545  1.0000
  Ag  Ag4887    1.0  0.95455  0.09091  0.04545  1.0000
  Ag  Ag4888    1.0  0.95455  0.13636  0.00000  1.0000
  Ag  Ag4889    1.0  0.90909  0.09091  0.09091  1.0000
  Ag  Ag4890    1.0  0.90909  0.13636  0.13636  1.0000
  Ag  Ag4891    1.0  0.95455  0.09091  0.13636  1.0000
  Ag  Ag4892    1.0  0.95455  0.13636  0.09091  1.0000
  Ag  Ag4893    1.0  0.90909  0.09091  0.18182  1.0000
  Ag  Ag4894    1.0  0.90909  0.13636  0.22727  1.0000
  Ag  Ag4895    1.0  0.95455  0.09091  0.22727  1.0000
  Ag  Ag4896    1.0  0.95455  0.13636  0.18182  1.0000
  Ag  Ag4897    1.0  0.90909  0.09091  0.27273  1.0000
  Ag  Ag4898    1.0  0.90909  0.13636  0.31818  1.0000
  Ag  Ag4899    1.0  0.95455  0.09091  0.31818  1.0000
  Ag  Ag4900    1.0  0.95455  0.13636  0.27273  1.0000
  Ag  Ag4901    1.0  0.90909  0.09091  0.36364  1.0000
  Ag  Ag4902    1.0  0.90909  0.13636  0.40909  1.0000
  Ag  Ag4903    1.0  0.95455  0.09091  0.40909  1.0000
  Ag  Ag4904    1.0  0.95455  0.13636  0.36364  1.0000
  Ag  Ag4905    1.0  0.90909  0.09091  0.45455  1.0000
  Ag  Ag4906    1.0  0.90909  0.13636  0.50000  1.0000
  Ag  Ag4907    1.0  0.95455  0.09091  0.50000  1.0000
  Ag  Ag4908    1.0  0.95455  0.13636  0.45455  1.0000
  Ag  Ag4909    1.0  0.90909  0.09091  0.54545  1.0000
  Ag  Ag4910    1.0  0.90909  0.13636  0.59091  1.0000
  Ag  Ag4911    1.0  0.95455  0.09091  0.59091  1.0000
  Ag  Ag4912    1.0  0.95455  0.13636  0.54545  1.0000
  Ag  Ag4913    1.0  0.90909  0.09091  0.63636  1.0000
  Ag  Ag4914    1.0  0.90909  0.13636  0.68182  1.0000
  Ag  Ag4915    1.0  0.95455  0.09091  0.68182  1.0000
  Ag  Ag4916    1.0  0.95455  0.13636  0.63636  1.0000
  Ag  Ag4917    1.0  0.90909  0.09091  0.72727  1.0000
  Ag  Ag4918    1.0  0.90909  0.13636  0.77273  1.0000
  Ag  Ag4919    1.0  0.95455  0.09091  0.77273  1.0000
  Ag  Ag4920    1.0  0.95455  0.13636  0.72727  1.0000
  Ag  Ag4921    1.0  0.90909  0.09091  0.81818  1.0000
  Ag  Ag4922    1.0  0.90909  0.13636  0.86364  1.0000
  Ag  Ag4923    1.0  0.95455  0.09091  0.86364  1.0000
  Ag  Ag4924    1.0  0.95455  0.13636  0.81818  1.0000
  Ag  Ag4925    1.0  0.90909  0.09091  0.90909  1.0000
  Ag  Ag4926    1.0  0.90909  0.13636  0.95455  1.0000
  Ag  Ag4927    1.0  0.95455  0.09091  0.95455  1.0000
  Ag  Ag4928    1.0  0.95455  0.13636  0.90909  1.0000
  Ag  Ag4929    1.0  0.90909  0.18182  0.00000  1.0000
  Ag  Ag4930    1.0  0.90909  0.22727  0.04545  1.0000
  Ag  Ag4931    1.0  0.95455  0.18182  0.04545  1.0000
  Ag  Ag4932    1.0  0.95455  0.22727  0.00000  1.0000
  Ag  Ag4933    1.0  0.90909  0.18182  0.09091  1.0000
  Ag  Ag4934    1.0  0.90909  0.22727  0.13636  1.0000
  Ag  Ag4935    1.0  0.95455  0.18182  0.13636  1.0000
  Ag  Ag4936    1.0  0.95455  0.22727  0.09091  1.0000
  Ag  Ag4937    1.0  0.90909  0.18182  0.18182  1.0000
  Ag  Ag4938    1.0  0.90909  0.22727  0.22727  1.0000
  Ag  Ag4939    1.0  0.95455  0.18182  0.22727  1.0000
  Ag  Ag4940    1.0  0.95455  0.22727  0.18182  1.0000
  Ag  Ag4941    1.0  0.90909  0.18182  0.27273  1.0000
  Ag  Ag4942    1.0  0.90909  0.22727  0.31818  1.0000
  Ag  Ag4943    1.0  0.95455  0.18182  0.31818  1.0000
  Ag  Ag4944    1.0  0.95455  0.22727  0.27273  1.0000
  Ag  Ag4945    1.0  0.90909  0.18182  0.36364  1.0000
  Ag  Ag4946    1.0  0.90909  0.22727  0.40909  1.0000
  Ag  Ag4947    1.0  0.95455  0.18182  0.40909  1.0000
  Ag  Ag4948    1.0  0.95455  0.22727  0.36364  1.0000
  Ag  Ag4949    1.0  0.90909  0.18182  0.45455  1.0000
  Ag  Ag4950    1.0  0.90909  0.22727  0.50000  1.0000
  Ag  Ag4951    1.0  0.95455  0.18182  0.50000  1.0000
  Ag  Ag4952    1.0  0.95455  0.22727  0.45455  1.0000
  Ag  Ag4953    1.0  0.90909  0.18182  0.54545  1.0000
  Ag  Ag4954    1.0  0.90909  0.22727  0.59091  1.0000
  Ag  Ag4955    1.0  0.95455  0.18182  0.59091  1.0000
  Ag  Ag4956    1.0  0.95455  0.22727  0.54545  1.0000
  Ag  Ag4957    1.0  0.90909  0.18182  0.63636  1.0000
  Ag  Ag4958    1.0  0.90909  0.22727  0.68182  1.0000
  Ag  Ag4959    1.0  0.95455  0.18182  0.68182  1.0000
  Ag  Ag4960    1.0  0.95455  0.22727  0.63636  1.0000
  Ag  Ag4961    1.0  0.90909  0.18182  0.72727  1.0000
  Ag  Ag4962    1.0  0.90909  0.22727  0.77273  1.0000
  Ag  Ag4963    1.0  0.95455  0.18182  0.77273  1.0000
  Ag  Ag4964    1.0  0.95455  0.22727  0.72727  1.0000
  Ag  Ag4965    1.0  0.90909  0.18182  0.81818  1.0000
  Ag  Ag4966    1.0  0.90909  0.22727  0.86364  1.0000
  Ag  Ag4967    1.0  0.95455  0.18182  0.86364  1.0000
  Ag  Ag4968    1.0  0.95455  0.22727  0.81818  1.0000
  Ag  Ag4969    1.0  0.90909  0.18182  0.90909  1.0000
  Ag  Ag4970    1.0  0.90909  0.22727  0.95455  1.0000
  Ag  Ag4971    1.0  0.95455  0.18182  0.95455  1.0000
  Ag  Ag4972    1.0  0.95455  0.22727  0.90909  1.0000
  Ag  Ag4973    1.0  0.90909  0.27273  0.00000  1.0000
  Ag  Ag4974    1.0  0.90909  0.31818  0.04545  1.0000
  Ag  Ag4975    1.0  0.95455  0.27273  0.04545  1.0000
  Ag  Ag4976    1.0  0.95455  0.31818  0.00000  1.0000
  Ag  Ag4977    1.0  0.90909  0.27273  0.09091  1.0000
  Ag  Ag4978    1.0  0.90909  0.31818  0.13636  1.0000
  Ag  Ag4979    1.0  0.95455  0.27273  0.13636  1.0000
  Ag  Ag4980    1.0  0.95455  0.31818  0.09091  1.0000
  Ag  Ag4981    1.0  0.90909  0.27273  0.18182  1.0000
  Ag  Ag4982    1.0  0.90909  0.31818  0.22727  1.0000
  Ag  Ag4983    1.0  0.95455  0.27273  0.22727  1.0000
  Ag  Ag4984    1.0  0.95455  0.31818  0.18182  1.0000
  Ag  Ag4985    1.0  0.90909  0.27273  0.27273  1.0000
  Ag  Ag4986    1.0  0.90909  0.31818  0.31818  1.0000
  Ag  Ag4987    1.0  0.95455  0.27273  0.31818  1.0000
  Ag  Ag4988    1.0  0.95455  0.31818  0.27273  1.0000
  Ag  Ag4989    1.0  0.90909  0.27273  0.36364  1.0000
  Ag  Ag4990    1.0  0.90909  0.31818  0.40909  1.0000
  Ag  Ag4991    1.0  0.95455  0.27273  0.40909  1.0000
  Ag  Ag4992    1.0  0.95455  0.31818  0.36364  1.0000
  Ag  Ag4993    1.0  0.90909  0.27273  0.45455  1.0000
  Ag  Ag4994    1.0  0.90909  0.31818  0.50000  1.0000
  Ag  Ag4995    1.0  0.95455  0.27273  0.50000  1.0000
  Ag  Ag4996    1.0  0.95455  0.31818  0.45455  1.0000
  Ag  Ag4997    1.0  0.90909  0.27273  0.54545  1.0000
  Ag  Ag4998    1.0  0.90909  0.31818  0.59091  1.0000
  Ag  Ag4999    1.0  0.95455  0.27273  0.59091  1.0000
  Ag  Ag5000    1.0  0.95455  0.31818  0.54545  1.0000
  Ag  Ag5001    1.0  0.90909  0.27273  0.63636  1.0000
  Ag  Ag5002    1.0  0.90909  0.31818  0.68182  1.0000
  Ag  Ag5003    1.0  0.95455  0.27273  0.68182  1.0000
  Ag  Ag5004    1.0  0.95455  0.31818  0.63636  1.0000
  Ag  Ag5005    1.0  0.90909  0.27273  0.72727  1.0000
  Ag  Ag5006    1.0  0.90909  0.31818  0.77273  1.0000
  Ag  Ag5007    1.0  0.95455  0.27273  0.77273  1.0000
  Ag  Ag5008    1.0  0.95455  0.31818  0.72727  1.0000
  Ag  Ag5009    1.0  0.90909  0.27273  0.81818  1.0000
  Ag  Ag5010    1.0  0.90909  0.31818  0.86364  1.0000
  Ag  Ag5011    1.0  0.95455  0.27273  0.86364  1.0000
  Ag  Ag5012    1.0  0.95455  0.31818  0.81818  1.0000
  Ag  Ag5013    1.0  0.90909  0.27273  0.90909  1.0000
  Ag  Ag5014    1.0  0.90909  0.31818  0.95455  1.0000
  Ag  Ag5015    1.0  0.95455  0.27273  0.95455  1.0000
  Ag  Ag5016    1.0  0.95455  0.31818  0.90909  1.0000
  Ag  Ag5017    1.0  0.90909  0.36364  0.00000  1.0000
  Ag  Ag5018    1.0  0.90909  0.40909  0.04545  1.0000
  Ag  Ag5019    1.0  0.95455  0.36364  0.04545  1.0000
  Ag  Ag5020    1.0  0.95455  0.40909  0.00000  1.0000
  Ag  Ag5021    1.0  0.90909  0.36364  0.09091  1.0000
  Ag  Ag5022    1.0  0.90909  0.40909  0.13636  1.0000
  Ag  Ag5023    1.0  0.95455  0.36364  0.13636  1.0000
  Ag  Ag5024    1.0  0.95455  0.40909  0.09091  1.0000
  Ag  Ag5025    1.0  0.90909  0.36364  0.18182  1.0000
  Ag  Ag5026    1.0  0.90909  0.40909  0.22727  1.0000
  Ag  Ag5027    1.0  0.95455  0.36364  0.22727  1.0000
  Ag  Ag5028    1.0  0.95455  0.40909  0.18182  1.0000
  Ag  Ag5029    1.0  0.90909  0.36364  0.27273  1.0000
  Ag  Ag5030    1.0  0.90909  0.40909  0.31818  1.0000
  Ag  Ag5031    1.0  0.95455  0.36364  0.31818  1.0000
  Ag  Ag5032    1.0  0.95455  0.40909  0.27273  1.0000
  Ag  Ag5033    1.0  0.90909  0.36364  0.36364  1.0000
  Ag  Ag5034    1.0  0.90909  0.40909  0.40909  1.0000
  Ag  Ag5035    1.0  0.95455  0.36364  0.40909  1.0000
  Ag  Ag5036    1.0  0.95455  0.40909  0.36364  1.0000
  Ag  Ag5037    1.0  0.90909  0.36364  0.45455  1.0000
  Ag  Ag5038    1.0  0.90909  0.40909  0.50000  1.0000
  Ag  Ag5039    1.0  0.95455  0.36364  0.50000  1.0000
  Ag  Ag5040    1.0  0.95455  0.40909  0.45455  1.0000
  Ag  Ag5041    1.0  0.90909  0.36364  0.54545  1.0000
  Ag  Ag5042    1.0  0.90909  0.40909  0.59091  1.0000
  Ag  Ag5043    1.0  0.95455  0.36364  0.59091  1.0000
  Ag  Ag5044    1.0  0.95455  0.40909  0.54545  1.0000
  Ag  Ag5045    1.0  0.90909  0.36364  0.63636  1.0000
  Ag  Ag5046    1.0  0.90909  0.40909  0.68182  1.0000
  Ag  Ag5047    1.0  0.95455  0.36364  0.68182  1.0000
  Ag  Ag5048    1.0  0.95455  0.40909  0.63636  1.0000
  Ag  Ag5049    1.0  0.90909  0.36364  0.72727  1.0000
  Ag  Ag5050    1.0  0.90909  0.40909  0.77273  1.0000
  Ag  Ag5051    1.0  0.95455  0.36364  0.77273  1.0000
  Ag  Ag5052    1.0  0.95455  0.40909  0.72727  1.0000
  Ag  Ag5053    1.0  0.90909  0.36364  0.81818  1.0000
  Ag  Ag5054    1.0  0.90909  0.40909  0.86364  1.0000
  Ag  Ag5055    1.0  0.95455  0.36364  0.86364  1.0000
  Ag  Ag5056    1.0  0.95455  0.40909  0.81818  1.0000
  Ag  Ag5057    1.0  0.90909  0.36364  0.90909  1.0000
  Ag  Ag5058    1.0  0.90909  0.40909  0.95455  1.0000
  Ag  Ag5059    1.0  0.95455  0.36364  0.95455  1.0000
  Ag  Ag5060    1.0  0.95455  0.40909  0.90909  1.0000
  Ag  Ag5061    1.0  0.90909  0.45455  0.00000  1.0000
  Ag  Ag5062    1.0  0.90909  0.50000  0.04545  1.0000
  Ag  Ag5063    1.0  0.95455  0.45455  0.04545  1.0000
  Ag  Ag5064    1.0  0.95455  0.50000  0.00000  1.0000
  Ag  Ag5065    1.0  0.90909  0.45455  0.09091  1.0000
  Ag  Ag5066    1.0  0.90909  0.50000  0.13636  1.0000
  Ag  Ag5067    1.0  0.95455  0.45455  0.13636  1.0000
  Ag  Ag5068    1.0  0.95455  0.50000  0.09091  1.0000
  Ag  Ag5069    1.0  0.90909  0.45455  0.18182  1.0000
  Ag  Ag5070    1.0  0.90909  0.50000  0.22727  1.0000
  Ag  Ag5071    1.0  0.95455  0.45455  0.22727  1.0000
  Ag  Ag5072    1.0  0.95455  0.50000  0.18182  1.0000
  Ag  Ag5073    1.0  0.90909  0.45455  0.27273  1.0000
  Ag  Ag5074    1.0  0.90909  0.50000  0.31818  1.0000
  Ag  Ag5075    1.0  0.95455  0.45455  0.31818  1.0000
  Ag  Ag5076    1.0  0.95455  0.50000  0.27273  1.0000
  Ag  Ag5077    1.0  0.90909  0.45455  0.36364  1.0000
  Ag  Ag5078    1.0  0.90909  0.50000  0.40909  1.0000
  Ag  Ag5079    1.0  0.95455  0.45455  0.40909  1.0000
  Ag  Ag5080    1.0  0.95455  0.50000  0.36364  1.0000
  Ag  Ag5081    1.0  0.90909  0.45455  0.45455  1.0000
  Ag  Ag5082    1.0  0.90909  0.50000  0.50000  1.0000
  Ag  Ag5083    1.0  0.95455  0.45455  0.50000  1.0000
  Ag  Ag5084    1.0  0.95455  0.50000  0.45455  1.0000
  Ag  Ag5085    1.0  0.90909  0.45455  0.54545  1.0000
  Ag  Ag5086    1.0  0.90909  0.50000  0.59091  1.0000
  Ag  Ag5087    1.0  0.95455  0.45455  0.59091  1.0000
  Ag  Ag5088    1.0  0.95455  0.50000  0.54545  1.0000
  Ag  Ag5089    1.0  0.90909  0.45455  0.63636  1.0000
  Ag  Ag5090    1.0  0.90909  0.50000  0.68182  1.0000
  Ag  Ag5091    1.0  0.95455  0.45455  0.68182  1.0000
  Ag  Ag5092    1.0  0.95455  0.50000  0.63636  1.0000
  Ag  Ag5093    1.0  0.90909  0.45455  0.72727  1.0000
  Ag  Ag5094    1.0  0.90909  0.50000  0.77273  1.0000
  Ag  Ag5095    1.0  0.95455  0.45455  0.77273  1.0000
  Ag  Ag5096    1.0  0.95455  0.50000  0.72727  1.0000
  Ag  Ag5097    1.0  0.90909  0.45455  0.81818  1.0000
  Ag  Ag5098    1.0  0.90909  0.50000  0.86364  1.0000
  Ag  Ag5099    1.0  0.95455  0.45455  0.86364  1.0000
  Ag  Ag5100    1.0  0.95455  0.50000  0.81818  1.0000
  Ag  Ag5101    1.0  0.90909  0.45455  0.90909  1.0000
  Ag  Ag5102    1.0  0.90909  0.50000  0.95455  1.0000
  Ag  Ag5103    1.0  0.95455  0.45455  0.95455  1.0000
  Ag  Ag5104    1.0  0.95455  0.50000  0.90909  1.0000
  Ag  Ag5105    1.0  0.90909  0.54545  0.00000  1.0000
  Ag  Ag5106    1.0  0.90909  0.59091  0.04545  1.0000
  Ag  Ag5107    1.0  0.95455  0.54545  0.04545  1.0000
  Ag  Ag5108    1.0  0.95455  0.59091  0.00000  1.0000
  Ag  Ag5109    1.0  0.90909  0.54545  0.09091  1.0000
  Ag  Ag5110    1.0  0.90909  0.59091  0.13636  1.0000
  Ag  Ag5111    1.0  0.95455  0.54545  0.13636  1.0000
  Ag  Ag5112    1.0  0.95455  0.59091  0.09091  1.0000
  Ag  Ag5113    1.0  0.90909  0.54545  0.18182  1.0000
  Ag  Ag5114    1.0  0.90909  0.59091  0.22727  1.0000
  Ag  Ag5115    1.0  0.95455  0.54545  0.22727  1.0000
  Ag  Ag5116    1.0  0.95455  0.59091  0.18182  1.0000
  Ag  Ag5117    1.0  0.90909  0.54545  0.27273  1.0000
  Ag  Ag5118    1.0  0.90909  0.59091  0.31818  1.0000
  Ag  Ag5119    1.0  0.95455  0.54545  0.31818  1.0000
  Ag  Ag5120    1.0  0.95455  0.59091  0.27273  1.0000
  Ag  Ag5121    1.0  0.90909  0.54545  0.36364  1.0000
  Ag  Ag5122    1.0  0.90909  0.59091  0.40909  1.0000
  Ag  Ag5123    1.0  0.95455  0.54545  0.40909  1.0000
  Ag  Ag5124    1.0  0.95455  0.59091  0.36364  1.0000
  Ag  Ag5125    1.0  0.90909  0.54545  0.45455  1.0000
  Ag  Ag5126    1.0  0.90909  0.59091  0.50000  1.0000
  Ag  Ag5127    1.0  0.95455  0.54545  0.50000  1.0000
  Ag  Ag5128    1.0  0.95455  0.59091  0.45455  1.0000
  Ag  Ag5129    1.0  0.90909  0.54545  0.54545  1.0000
  Ag  Ag5130    1.0  0.90909  0.59091  0.59091  1.0000
  Ag  Ag5131    1.0  0.95455  0.54545  0.59091  1.0000
  Ag  Ag5132    1.0  0.95455  0.59091  0.54545  1.0000
  Ag  Ag5133    1.0  0.90909  0.54545  0.63636  1.0000
  Ag  Ag5134    1.0  0.90909  0.59091  0.68182  1.0000
  Ag  Ag5135    1.0  0.95455  0.54545  0.68182  1.0000
  Ag  Ag5136    1.0  0.95455  0.59091  0.63636  1.0000
  Ag  Ag5137    1.0  0.90909  0.54545  0.72727  1.0000
  Ag  Ag5138    1.0  0.90909  0.59091  0.77273  1.0000
  Ag  Ag5139    1.0  0.95455  0.54545  0.77273  1.0000
  Ag  Ag5140    1.0  0.95455  0.59091  0.72727  1.0000
  Ag  Ag5141    1.0  0.90909  0.54545  0.81818  1.0000
  Ag  Ag5142    1.0  0.90909  0.59091  0.86364  1.0000
  Ag  Ag5143    1.0  0.95455  0.54545  0.86364  1.0000
  Ag  Ag5144    1.0  0.95455  0.59091  0.81818  1.0000
  Ag  Ag5145    1.0  0.90909  0.54545  0.90909  1.0000
  Ag  Ag5146    1.0  0.90909  0.59091  0.95455  1.0000
  Ag  Ag5147    1.0  0.95455  0.54545  0.95455  1.0000
  Ag  Ag5148    1.0  0.95455  0.59091  0.90909  1.0000
  Ag  Ag5149    1.0  0.90909  0.63636  0.00000  1.0000
  Ag  Ag5150    1.0  0.90909  0.68182  0.04545  1.0000
  Ag  Ag5151    1.0  0.95455  0.63636  0.04545  1.0000
  Ag  Ag5152    1.0  0.95455  0.68182  0.00000  1.0000
  Ag  Ag5153    1.0  0.90909  0.63636  0.09091  1.0000
  Ag  Ag5154    1.0  0.90909  0.68182  0.13636  1.0000
  Ag  Ag5155    1.0  0.95455  0.63636  0.13636  1.0000
  Ag  Ag5156    1.0  0.95455  0.68182  0.09091  1.0000
  Ag  Ag5157    1.0  0.90909  0.63636  0.18182  1.0000
  Ag  Ag5158    1.0  0.90909  0.68182  0.22727  1.0000
  Ag  Ag5159    1.0  0.95455  0.63636  0.22727  1.0000
  Ag  Ag5160    1.0  0.95455  0.68182  0.18182  1.0000
  Ag  Ag5161    1.0  0.90909  0.63636  0.27273  1.0000
  Ag  Ag5162    1.0  0.90909  0.68182  0.31818  1.0000
  Ag  Ag5163    1.0  0.95455  0.63636  0.31818  1.0000
  Ag  Ag5164    1.0  0.95455  0.68182  0.27273  1.0000
  Ag  Ag5165    1.0  0.90909  0.63636  0.36364  1.0000
  Ag  Ag5166    1.0  0.90909  0.68182  0.40909  1.0000
  Ag  Ag5167    1.0  0.95455  0.63636  0.40909  1.0000
  Ag  Ag5168    1.0  0.95455  0.68182  0.36364  1.0000
  Ag  Ag5169    1.0  0.90909  0.63636  0.45455  1.0000
  Ag  Ag5170    1.0  0.90909  0.68182  0.50000  1.0000
  Ag  Ag5171    1.0  0.95455  0.63636  0.50000  1.0000
  Ag  Ag5172    1.0  0.95455  0.68182  0.45455  1.0000
  Ag  Ag5173    1.0  0.90909  0.63636  0.54545  1.0000
  Ag  Ag5174    1.0  0.90909  0.68182  0.59091  1.0000
  Ag  Ag5175    1.0  0.95455  0.63636  0.59091  1.0000
  Ag  Ag5176    1.0  0.95455  0.68182  0.54545  1.0000
  Ag  Ag5177    1.0  0.90909  0.63636  0.63636  1.0000
  Ag  Ag5178    1.0  0.90909  0.68182  0.68182  1.0000
  Ag  Ag5179    1.0  0.95455  0.63636  0.68182  1.0000
  Ag  Ag5180    1.0  0.95455  0.68182  0.63636  1.0000
  Ag  Ag5181    1.0  0.90909  0.63636  0.72727  1.0000
  Ag  Ag5182    1.0  0.90909  0.68182  0.77273  1.0000
  Ag  Ag5183    1.0  0.95455  0.63636  0.77273  1.0000
  Ag  Ag5184    1.0  0.95455  0.68182  0.72727  1.0000
  Ag  Ag5185    1.0  0.90909  0.63636  0.81818  1.0000
  Ag  Ag5186    1.0  0.90909  0.68182  0.86364  1.0000
  Ag  Ag5187    1.0  0.95455  0.63636  0.86364  1.0000
  Ag  Ag5188    1.0  0.95455  0.68182  0.81818  1.0000
  Ag  Ag5189    1.0  0.90909  0.63636  0.90909  1.0000
  Ag  Ag5190    1.0  0.90909  0.68182  0.95455  1.0000
  Ag  Ag5191    1.0  0.95455  0.63636  0.95455  1.0000
  Ag  Ag5192    1.0  0.95455  0.68182  0.90909  1.0000
  Ag  Ag5193    1.0  0.90909  0.72727  0.00000  1.0000
  Ag  Ag5194    1.0  0.90909  0.77273  0.04545  1.0000
  Ag  Ag5195    1.0  0.95455  0.72727  0.04545  1.0000
  Ag  Ag5196    1.0  0.95455  0.77273  0.00000  1.0000
  Ag  Ag5197    1.0  0.90909  0.72727  0.09091  1.0000
  Ag  Ag5198    1.0  0.90909  0.77273  0.13636  1.0000
  Ag  Ag5199    1.0  0.95455  0.72727  0.13636  1.0000
  Ag  Ag5200    1.0  0.95455  0.77273  0.09091  1.0000
  Ag  Ag5201    1.0  0.90909  0.72727  0.18182  1.0000
  Ag  Ag5202    1.0  0.90909  0.77273  0.22727  1.0000
  Ag  Ag5203    1.0  0.95455  0.72727  0.22727  1.0000
  Ag  Ag5204    1.0  0.95455  0.77273  0.18182  1.0000
  Ag  Ag5205    1.0  0.90909  0.72727  0.27273  1.0000
  Ag  Ag5206    1.0  0.90909  0.77273  0.31818  1.0000
  Ag  Ag5207    1.0  0.95455  0.72727  0.31818  1.0000
  Ag  Ag5208    1.0  0.95455  0.77273  0.27273  1.0000
  Ag  Ag5209    1.0  0.90909  0.72727  0.36364  1.0000
  Ag  Ag5210    1.0  0.90909  0.77273  0.40909  1.0000
  Ag  Ag5211    1.0  0.95455  0.72727  0.40909  1.0000
  Ag  Ag5212    1.0  0.95455  0.77273  0.36364  1.0000
  Ag  Ag5213    1.0  0.90909  0.72727  0.45455  1.0000
  Ag  Ag5214    1.0  0.90909  0.77273  0.50000  1.0000
  Ag  Ag5215    1.0  0.95455  0.72727  0.50000  1.0000
  Ag  Ag5216    1.0  0.95455  0.77273  0.45455  1.0000
  Ag  Ag5217    1.0  0.90909  0.72727  0.54545  1.0000
  Ag  Ag5218    1.0  0.90909  0.77273  0.59091  1.0000
  Ag  Ag5219    1.0  0.95455  0.72727  0.59091  1.0000
  Ag  Ag5220    1.0  0.95455  0.77273  0.54545  1.0000
  Ag  Ag5221    1.0  0.90909  0.72727  0.63636  1.0000
  Ag  Ag5222    1.0  0.90909  0.77273  0.68182  1.0000
  Ag  Ag5223    1.0  0.95455  0.72727  0.68182  1.0000
  Ag  Ag5224    1.0  0.95455  0.77273  0.63636  1.0000
  Ag  Ag5225    1.0  0.90909  0.72727  0.72727  1.0000
  Ag  Ag5226    1.0  0.90909  0.77273  0.77273  1.0000
  Ag  Ag5227    1.0  0.95455  0.72727  0.77273  1.0000
  Ag  Ag5228    1.0  0.95455  0.77273  0.72727  1.0000
  Ag  Ag5229    1.0  0.90909  0.72727  0.81818  1.0000
  Ag  Ag5230    1.0  0.90909  0.77273  0.86364  1.0000
  Ag  Ag5231    1.0  0.95455  0.72727  0.86364  1.0000
  Ag  Ag5232    1.0  0.95455  0.77273  0.81818  1.0000
  Ag  Ag5233    1.0  0.90909  0.72727  0.90909  1.0000
  Ag  Ag5234    1.0  0.90909  0.77273  0.95455  1.0000
  Ag  Ag5235    1.0  0.95455  0.72727  0.95455  1.0000
  Ag  Ag5236    1.0  0.95455  0.77273  0.90909  1.0000
  Ag  Ag5237    1.0  0.90909  0.81818  0.00000  1.0000
  Ag  Ag5238    1.0  0.90909  0.86364  0.04545  1.0000
  Ag  Ag5239    1.0  0.95455  0.81818  0.04545  1.0000
  Ag  Ag5240    1.0  0.95455  0.86364  0.00000  1.0000
  Ag  Ag5241    1.0  0.90909  0.81818  0.09091  1.0000
  Ag  Ag5242    1.0  0.90909  0.86364  0.13636  1.0000
  Ag  Ag5243    1.0  0.95455  0.81818  0.13636  1.0000
  Ag  Ag5244    1.0  0.95455  0.86364  0.09091  1.0000
  Ag  Ag5245    1.0  0.90909  0.81818  0.18182  1.0000
  Ag  Ag5246    1.0  0.90909  0.86364  0.22727  1.0000
  Ag  Ag5247    1.0  0.95455  0.81818  0.22727  1.0000
  Ag  Ag5248    1.0  0.95455  0.86364  0.18182  1.0000
  Ag  Ag5249    1.0  0.90909  0.81818  0.27273  1.0000
  Ag  Ag5250    1.0  0.90909  0.86364  0.31818  1.0000
  Ag  Ag5251    1.0  0.95455  0.81818  0.31818  1.0000
  Ag  Ag5252    1.0  0.95455  0.86364  0.27273  1.0000
  Ag  Ag5253    1.0  0.90909  0.81818  0.36364  1.0000
  Ag  Ag5254    1.0  0.90909  0.86364  0.40909  1.0000
  Ag  Ag5255    1.0  0.95455  0.81818  0.40909  1.0000
  Ag  Ag5256    1.0  0.95455  0.86364  0.36364  1.0000
  Ag  Ag5257    1.0  0.90909  0.81818  0.45455  1.0000
  Ag  Ag5258    1.0  0.90909  0.86364  0.50000  1.0000
  Ag  Ag5259    1.0  0.95455  0.81818  0.50000  1.0000
  Ag  Ag5260    1.0  0.95455  0.86364  0.45455  1.0000
  Ag  Ag5261    1.0  0.90909  0.81818  0.54545  1.0000
  Ag  Ag5262    1.0  0.90909  0.86364  0.59091  1.0000
  Ag  Ag5263    1.0  0.95455  0.81818  0.59091  1.0000
  Ag  Ag5264    1.0  0.95455  0.86364  0.54545  1.0000
  Ag  Ag5265    1.0  0.90909  0.81818  0.63636  1.0000
  Ag  Ag5266    1.0  0.90909  0.86364  0.68182  1.0000
  Ag  Ag5267    1.0  0.95455  0.81818  0.68182  1.0000
  Ag  Ag5268    1.0  0.95455  0.86364  0.63636  1.0000
  Ag  Ag5269    1.0  0.90909  0.81818  0.72727  1.0000
  Ag  Ag5270    1.0  0.90909  0.86364  0.77273  1.0000
  Ag  Ag5271    1.0  0.95455  0.81818  0.77273  1.0000
  Ag  Ag5272    1.0  0.95455  0.86364  0.72727  1.0000
  Ag  Ag5273    1.0  0.90909  0.81818  0.81818  1.0000
  Ag  Ag5274    1.0  0.90909  0.86364  0.86364  1.0000
  Ag  Ag5275    1.0  0.95455  0.81818  0.86364  1.0000
  Ag  Ag5276    1.0  0.95455  0.86364  0.81818  1.0000
  Ag  Ag5277    1.0  0.90909  0.81818  0.90909  1.0000
  Ag  Ag5278    1.0  0.90909  0.86364  0.95455  1.0000
  Ag  Ag5279    1.0  0.95455  0.81818  0.95455  1.0000
  Ag  Ag5280    1.0  0.95455  0.86364  0.90909  1.0000
  Ag  Ag5281    1.0  0.90909  0.90909  0.00000  1.0000
  Ag  Ag5282    1.0  0.90909  0.95455  0.04545  1.0000
  Ag  Ag5283    1.0  0.95455  0.90909  0.04545  1.0000
  Ag  Ag5284    1.0  0.95455  0.95455  0.00000  1.0000
  Ag  Ag5285    1.0  0.90909  0.90909  0.09091  1.0000
  Ag  Ag5286    1.0  0.90909  0.95455  0.13636  1.0000
  Ag  Ag5287    1.0  0.95455  0.90909  0.13636  1.0000
  Ag  Ag5288    1.0  0.95455  0.95455  0.09091  1.0000
  Ag  Ag5289    1.0  0.90909  0.90909  0.18182  1.0000
  Ag  Ag5290    1.0  0.90909  0.95455  0.22727  1.0000
  Ag  Ag5291    1.0  0.95455  0.90909  0.22727  1.0000
  Ag  Ag5292    1.0  0.95455  0.95455  0.18182  1.0000
  Ag  Ag5293    1.0  0.90909  0.90909  0.27273  1.0000
  Ag  Ag5294    1.0  0.90909  0.95455  0.31818  1.0000
  Ag  Ag5295    1.0  0.95455  0.90909  0.31818  1.0000
  Ag  Ag5296    1.0  0.95455  0.95455  0.27273  1.0000
  Ag  Ag5297    1.0  0.90909  0.90909  0.36364  1.0000
  Ag  Ag5298    1.0  0.90909  0.95455  0.40909  1.0000
  Ag  Ag5299    1.0  0.95455  0.90909  0.40909  1.0000
  Ag  Ag5300    1.0  0.95455  0.95455  0.36364  1.0000
  Ag  Ag5301    1.0  0.90909  0.90909  0.45455  1.0000
  Ag  Ag5302    1.0  0.90909  0.95455  0.50000  1.0000
  Ag  Ag5303    1.0  0.95455  0.90909  0.50000  1.0000
  Ag  Ag5304    1.0  0.95455  0.95455  0.45455  1.0000
  Ag  Ag5305    1.0  0.90909  0.90909  0.54545  1.0000
  Ag  Ag5306    1.0  0.90909  0.95455  0.59091  1.0000
  Ag  Ag5307    1.0  0.95455  0.90909  0.59091  1.0000
  Ag  Ag5308    1.0  0.95455  0.95455  0.54545  1.0000
  Ag  Ag5309    1.0  0.90909  0.90909  0.63636  1.0000
  Ag  Ag5310    1.0  0.90909  0.95455  0.68182  1.0000
  Ag  Ag5311    1.0  0.95455  0.90909  0.68182  1.0000
  Ag  Ag5312    1.0  0.95455  0.95455  0.63636  1.0000
  Ag  Ag5313    1.0  0.90909  0.90909  0.72727  1.0000
  Ag  Ag5314    1.0  0.90909  0.95455  0.77273  1.0000
  Ag  Ag5315    1.0  0.95455  0.90909  0.77273  1.0000
  Ag  Ag5316    1.0  0.95455  0.95455  0.72727  1.0000
  Ag  Ag5317    1.0  0.90909  0.90909  0.81818  1.0000
  Ag  Ag5318    1.0  0.90909  0.95455  0.86364  1.0000
  Ag  Ag5319    1.0  0.95455  0.90909  0.86364  1.0000
  Ag  Ag5320    1.0  0.95455  0.95455  0.81818  1.0000
  Ag  Ag5321    1.0  0.90909  0.90909  0.90909  1.0000
  Ag  Ag5322    1.0  0.90909  0.95455  0.95455  1.0000
  Ag  Ag5323    1.0  0.95455  0.90909  0.95455  1.0000
  Ag  Ag5324    1.0  0.95455  0.95455  0.90909  1.0000
