data_image0
_chemical_formula_structural       Ag10975
_chemical_formula_sum              "Ag10975"
_cell_length_a       57.26
_cell_length_b       57.26
_cell_length_c       57.26
_cell_angle_alpha    90
_cell_angle_beta     90
_cell_angle_gamma    90

_space_group_name_H-M_alt    "P 1"
_space_group_IT_number       1

loop_
  _space_group_symop_operation_xyz
  'x, y, z'

loop_
  _atom_site_type_symbol
  _atom_site_label
  _atom_site_symmetry_multiplicity
  _atom_site_fract_x
  _atom_site_fract_y
  _atom_site_fract_z
  _atom_site_occupancy
  Ag  Ag1       1.0  0.00000  0.03571  0.03571  1.0000
  Ag  Ag2       1.0  0.03571  0.00000  0.03571  1.0000
  Ag  Ag3       1.0  0.03571  0.03571  0.00000  1.0000
  Ag  Ag4       1.0  0.00000  0.00000  0.07143  1.0000
  Ag  Ag5       1.0  0.00000  0.03571  0.10714  1.0000
  Ag  Ag6       1.0  0.03571  0.00000  0.10714  1.0000
  Ag  Ag7       1.0  0.03571  0.03571  0.07143  1.0000
  Ag  Ag8       1.0  0.00000  0.00000  0.14286  1.0000
  Ag  Ag9       1.0  0.00000  0.03571  0.17857  1.0000
  Ag  Ag10      1.0  0.03571  0.00000  0.17857  1.0000
  Ag  Ag11      1.0  0.03571  0.03571  0.14286  1.0000
  Ag  Ag12      1.0  0.00000  0.00000  0.21429  1.0000
  Ag  Ag13      1.0  0.00000  0.03571  0.25000  1.0000
  Ag  Ag14      1.0  0.03571  0.00000  0.25000  1.0000
  Ag  Ag15      1.0  0.03571  0.03571  0.21429  1.0000
  Ag  Ag16      1.0  0.00000  0.00000  0.28571  1.0000
  Ag  Ag17      1.0  0.00000  0.03571  0.32143  1.0000
  Ag  Ag18      1.0  0.03571  0.00000  0.32143  1.0000
  Ag  Ag19      1.0  0.03571  0.03571  0.28571  1.0000
  Ag  Ag20      1.0  0.00000  0.00000  0.35714  1.0000
  Ag  Ag21      1.0  0.00000  0.03571  0.39286  1.0000
  Ag  Ag22      1.0  0.03571  0.00000  0.39286  1.0000
  Ag  Ag23      1.0  0.03571  0.03571  0.35714  1.0000
  Ag  Ag24      1.0  0.00000  0.00000  0.42857  1.0000
  Ag  Ag25      1.0  0.00000  0.03571  0.46429  1.0000
  Ag  Ag26      1.0  0.03571  0.00000  0.46429  1.0000
  Ag  Ag27      1.0  0.03571  0.03571  0.42857  1.0000
  Ag  Ag28      1.0  0.00000  0.00000  0.50000  1.0000
  Ag  Ag29      1.0  0.00000  0.03571  0.53571  1.0000
  Ag  Ag30      1.0  0.03571  0.00000  0.53571  1.0000
  Ag  Ag31      1.0  0.03571  0.03571  0.50000  1.0000
  Ag  Ag32      1.0  0.00000  0.00000  0.57143  1.0000
  Ag  Ag33      1.0  0.00000  0.03571  0.60714  1.0000
  Ag  Ag34      1.0  0.03571  0.00000  0.60714  1.0000
  Ag  Ag35      1.0  0.03571  0.03571  0.57143  1.0000
  Ag  Ag36      1.0  0.00000  0.00000  0.64286  1.0000
  Ag  Ag37      1.0  0.00000  0.03571  0.67857  1.0000
  Ag  Ag38      1.0  0.03571  0.00000  0.67857  1.0000
  Ag  Ag39      1.0  0.03571  0.03571  0.64286  1.0000
  Ag  Ag40      1.0  0.00000  0.00000  0.71429  1.0000
  Ag  Ag41      1.0  0.00000  0.03571  0.75000  1.0000
  Ag  Ag42      1.0  0.03571  0.00000  0.75000  1.0000
  Ag  Ag43      1.0  0.03571  0.03571  0.71429  1.0000
  Ag  Ag44      1.0  0.00000  0.00000  0.78571  1.0000
  Ag  Ag45      1.0  0.00000  0.03571  0.82143  1.0000
  Ag  Ag46      1.0  0.03571  0.00000  0.82143  1.0000
  Ag  Ag47      1.0  0.03571  0.03571  0.78571  1.0000
  Ag  Ag48      1.0  0.00000  0.00000  0.85714  1.0000
  Ag  Ag49      1.0  0.00000  0.03571  0.89286  1.0000
  Ag  Ag50      1.0  0.03571  0.00000  0.89286  1.0000
  Ag  Ag51      1.0  0.03571  0.03571  0.85714  1.0000
  Ag  Ag52      1.0  0.00000  0.00000  0.92857  1.0000
  Ag  Ag53      1.0  0.00000  0.03571  0.96429  1.0000
  Ag  Ag54      1.0  0.03571  0.00000  0.96429  1.0000
  Ag  Ag55      1.0  0.03571  0.03571  0.92857  1.0000
  Ag  Ag56      1.0  0.00000  0.07143  0.00000  1.0000
  Ag  Ag57      1.0  0.00000  0.10714  0.03571  1.0000
  Ag  Ag58      1.0  0.03571  0.07143  0.03571  1.0000
  Ag  Ag59      1.0  0.03571  0.10714  0.00000  1.0000
  Ag  Ag60      1.0  0.00000  0.07143  0.07143  1.0000
  Ag  Ag61      1.0  0.00000  0.10714  0.10714  1.0000
  Ag  Ag62      1.0  0.03571  0.07143  0.10714  1.0000
  Ag  Ag63      1.0  0.03571  0.10714  0.07143  1.0000
  Ag  Ag64      1.0  0.00000  0.07143  0.14286  1.0000
  Ag  Ag65      1.0  0.00000  0.10714  0.17857  1.0000
  Ag  Ag66      1.0  0.03571  0.07143  0.17857  1.0000
  Ag  Ag67      1.0  0.03571  0.10714  0.14286  1.0000
  Ag  Ag68      1.0  0.00000  0.07143  0.21429  1.0000
  Ag  Ag69      1.0  0.00000  0.10714  0.25000  1.0000
  Ag  Ag70      1.0  0.03571  0.07143  0.25000  1.0000
  Ag  Ag71      1.0  0.03571  0.10714  0.21429  1.0000
  Ag  Ag72      1.0  0.00000  0.07143  0.28571  1.0000
  Ag  Ag73      1.0  0.00000  0.10714  0.32143  1.0000
  Ag  Ag74      1.0  0.03571  0.07143  0.32143  1.0000
  Ag  Ag75      1.0  0.03571  0.10714  0.28571  1.0000
  Ag  Ag76      1.0  0.00000  0.07143  0.35714  1.0000
  Ag  Ag77      1.0  0.00000  0.10714  0.39286  1.0000
  Ag  Ag78      1.0  0.03571  0.07143  0.39286  1.0000
  Ag  Ag79      1.0  0.03571  0.10714  0.35714  1.0000
  Ag  Ag80      1.0  0.00000  0.07143  0.42857  1.0000
  Ag  Ag81      1.0  0.00000  0.10714  0.46429  1.0000
  Ag  Ag82      1.0  0.03571  0.07143  0.46429  1.0000
  Ag  Ag83      1.0  0.03571  0.10714  0.42857  1.0000
  Ag  Ag84      1.0  0.00000  0.07143  0.50000  1.0000
  Ag  Ag85      1.0  0.00000  0.10714  0.53571  1.0000
  Ag  Ag86      1.0  0.03571  0.07143  0.53571  1.0000
  Ag  Ag87      1.0  0.03571  0.10714  0.50000  1.0000
  Ag  Ag88      1.0  0.00000  0.07143  0.57143  1.0000
  Ag  Ag89      1.0  0.00000  0.10714  0.60714  1.0000
  Ag  Ag90      1.0  0.03571  0.07143  0.60714  1.0000
  Ag  Ag91      1.0  0.03571  0.10714  0.57143  1.0000
  Ag  Ag92      1.0  0.00000  0.07143  0.64286  1.0000
  Ag  Ag93      1.0  0.00000  0.10714  0.67857  1.0000
  Ag  Ag94      1.0  0.03571  0.07143  0.67857  1.0000
  Ag  Ag95      1.0  0.03571  0.10714  0.64286  1.0000
  Ag  Ag96      1.0  0.00000  0.07143  0.71429  1.0000
  Ag  Ag97      1.0  0.00000  0.10714  0.75000  1.0000
  Ag  Ag98      1.0  0.03571  0.07143  0.75000  1.0000
  Ag  Ag99      1.0  0.03571  0.10714  0.71429  1.0000
  Ag  Ag100     1.0  0.00000  0.07143  0.78571  1.0000
  Ag  Ag101     1.0  0.00000  0.10714  0.82143  1.0000
  Ag  Ag102     1.0  0.03571  0.07143  0.82143  1.0000
  Ag  Ag103     1.0  0.03571  0.10714  0.78571  1.0000
  Ag  Ag104     1.0  0.00000  0.07143  0.85714  1.0000
  Ag  Ag105     1.0  0.00000  0.10714  0.89286  1.0000
  Ag  Ag106     1.0  0.03571  0.07143  0.89286  1.0000
  Ag  Ag107     1.0  0.03571  0.10714  0.85714  1.0000
  Ag  Ag108     1.0  0.00000  0.07143  0.92857  1.0000
  Ag  Ag109     1.0  0.00000  0.10714  0.96429  1.0000
  Ag  Ag110     1.0  0.03571  0.07143  0.96429  1.0000
  Ag  Ag111     1.0  0.03571  0.10714  0.92857  1.0000
  Ag  Ag112     1.0  0.00000  0.14286  0.00000  1.0000
  Ag  Ag113     1.0  0.00000  0.17857  0.03571  1.0000
  Ag  Ag114     1.0  0.03571  0.14286  0.03571  1.0000
  Ag  Ag115     1.0  0.03571  0.17857  0.00000  1.0000
  Ag  Ag116     1.0  0.00000  0.14286  0.07143  1.0000
  Ag  Ag117     1.0  0.00000  0.17857  0.10714  1.0000
  Ag  Ag118     1.0  0.03571  0.14286  0.10714  1.0000
  Ag  Ag119     1.0  0.03571  0.17857  0.07143  1.0000
  Ag  Ag120     1.0  0.00000  0.14286  0.14286  1.0000
  Ag  Ag121     1.0  0.00000  0.17857  0.17857  1.0000
  Ag  Ag122     1.0  0.03571  0.14286  0.17857  1.0000
  Ag  Ag123     1.0  0.03571  0.17857  0.14286  1.0000
  Ag  Ag124     1.0  0.00000  0.14286  0.21429  1.0000
  Ag  Ag125     1.0  0.00000  0.17857  0.25000  1.0000
  Ag  Ag126     1.0  0.03571  0.14286  0.25000  1.0000
  Ag  Ag127     1.0  0.03571  0.17857  0.21429  1.0000
  Ag  Ag128     1.0  0.00000  0.14286  0.28571  1.0000
  Ag  Ag129     1.0  0.00000  0.17857  0.32143  1.0000
  Ag  Ag130     1.0  0.03571  0.14286  0.32143  1.0000
  Ag  Ag131     1.0  0.03571  0.17857  0.28571  1.0000
  Ag  Ag132     1.0  0.00000  0.14286  0.35714  1.0000
  Ag  Ag133     1.0  0.00000  0.17857  0.39286  1.0000
  Ag  Ag134     1.0  0.03571  0.14286  0.39286  1.0000
  Ag  Ag135     1.0  0.03571  0.17857  0.35714  1.0000
  Ag  Ag136     1.0  0.00000  0.14286  0.42857  1.0000
  Ag  Ag137     1.0  0.00000  0.17857  0.46429  1.0000
  Ag  Ag138     1.0  0.03571  0.14286  0.46429  1.0000
  Ag  Ag139     1.0  0.03571  0.17857  0.42857  1.0000
  Ag  Ag140     1.0  0.00000  0.14286  0.50000  1.0000
  Ag  Ag141     1.0  0.00000  0.17857  0.53571  1.0000
  Ag  Ag142     1.0  0.03571  0.14286  0.53571  1.0000
  Ag  Ag143     1.0  0.03571  0.17857  0.50000  1.0000
  Ag  Ag144     1.0  0.00000  0.14286  0.57143  1.0000
  Ag  Ag145     1.0  0.00000  0.17857  0.60714  1.0000
  Ag  Ag146     1.0  0.03571  0.14286  0.60714  1.0000
  Ag  Ag147     1.0  0.03571  0.17857  0.57143  1.0000
  Ag  Ag148     1.0  0.00000  0.14286  0.64286  1.0000
  Ag  Ag149     1.0  0.00000  0.17857  0.67857  1.0000
  Ag  Ag150     1.0  0.03571  0.14286  0.67857  1.0000
  Ag  Ag151     1.0  0.03571  0.17857  0.64286  1.0000
  Ag  Ag152     1.0  0.00000  0.14286  0.71429  1.0000
  Ag  Ag153     1.0  0.00000  0.17857  0.75000  1.0000
  Ag  Ag154     1.0  0.03571  0.14286  0.75000  1.0000
  Ag  Ag155     1.0  0.03571  0.17857  0.71429  1.0000
  Ag  Ag156     1.0  0.00000  0.14286  0.78571  1.0000
  Ag  Ag157     1.0  0.00000  0.17857  0.82143  1.0000
  Ag  Ag158     1.0  0.03571  0.14286  0.82143  1.0000
  Ag  Ag159     1.0  0.03571  0.17857  0.78571  1.0000
  Ag  Ag160     1.0  0.00000  0.14286  0.85714  1.0000
  Ag  Ag161     1.0  0.00000  0.17857  0.89286  1.0000
  Ag  Ag162     1.0  0.03571  0.14286  0.89286  1.0000
  Ag  Ag163     1.0  0.03571  0.17857  0.85714  1.0000
  Ag  Ag164     1.0  0.00000  0.14286  0.92857  1.0000
  Ag  Ag165     1.0  0.00000  0.17857  0.96429  1.0000
  Ag  Ag166     1.0  0.03571  0.14286  0.96429  1.0000
  Ag  Ag167     1.0  0.03571  0.17857  0.92857  1.0000
  Ag  Ag168     1.0  0.00000  0.21429  0.00000  1.0000
  Ag  Ag169     1.0  0.00000  0.25000  0.03571  1.0000
  Ag  Ag170     1.0  0.03571  0.21429  0.03571  1.0000
  Ag  Ag171     1.0  0.03571  0.25000  0.00000  1.0000
  Ag  Ag172     1.0  0.00000  0.21429  0.07143  1.0000
  Ag  Ag173     1.0  0.00000  0.25000  0.10714  1.0000
  Ag  Ag174     1.0  0.03571  0.21429  0.10714  1.0000
  Ag  Ag175     1.0  0.03571  0.25000  0.07143  1.0000
  Ag  Ag176     1.0  0.00000  0.21429  0.14286  1.0000
  Ag  Ag177     1.0  0.00000  0.25000  0.17857  1.0000
  Ag  Ag178     1.0  0.03571  0.21429  0.17857  1.0000
  Ag  Ag179     1.0  0.03571  0.25000  0.14286  1.0000
  Ag  Ag180     1.0  0.00000  0.21429  0.21429  1.0000
  Ag  Ag181     1.0  0.00000  0.25000  0.25000  1.0000
  Ag  Ag182     1.0  0.03571  0.21429  0.25000  1.0000
  Ag  Ag183     1.0  0.03571  0.25000  0.21429  1.0000
  Ag  Ag184     1.0  0.00000  0.21429  0.28571  1.0000
  Ag  Ag185     1.0  0.00000  0.25000  0.32143  1.0000
  Ag  Ag186     1.0  0.03571  0.21429  0.32143  1.0000
  Ag  Ag187     1.0  0.03571  0.25000  0.28571  1.0000
  Ag  Ag188     1.0  0.00000  0.21429  0.35714  1.0000
  Ag  Ag189     1.0  0.00000  0.25000  0.39286  1.0000
  Ag  Ag190     1.0  0.03571  0.21429  0.39286  1.0000
  Ag  Ag191     1.0  0.03571  0.25000  0.35714  1.0000
  Ag  Ag192     1.0  0.00000  0.21429  0.42857  1.0000
  Ag  Ag193     1.0  0.00000  0.25000  0.46429  1.0000
  Ag  Ag194     1.0  0.03571  0.21429  0.46429  1.0000
  Ag  Ag195     1.0  0.03571  0.25000  0.42857  1.0000
  Ag  Ag196     1.0  0.00000  0.21429  0.50000  1.0000
  Ag  Ag197     1.0  0.00000  0.25000  0.53571  1.0000
  Ag  Ag198     1.0  0.03571  0.21429  0.53571  1.0000
  Ag  Ag199     1.0  0.03571  0.25000  0.50000  1.0000
  Ag  Ag200     1.0  0.00000  0.21429  0.57143  1.0000
  Ag  Ag201     1.0  0.00000  0.25000  0.60714  1.0000
  Ag  Ag202     1.0  0.03571  0.21429  0.60714  1.0000
  Ag  Ag203     1.0  0.03571  0.25000  0.57143  1.0000
  Ag  Ag204     1.0  0.00000  0.21429  0.64286  1.0000
  Ag  Ag205     1.0  0.00000  0.25000  0.67857  1.0000
  Ag  Ag206     1.0  0.03571  0.21429  0.67857  1.0000
  Ag  Ag207     1.0  0.03571  0.25000  0.64286  1.0000
  Ag  Ag208     1.0  0.00000  0.21429  0.71429  1.0000
  Ag  Ag209     1.0  0.00000  0.25000  0.75000  1.0000
  Ag  Ag210     1.0  0.03571  0.21429  0.75000  1.0000
  Ag  Ag211     1.0  0.03571  0.25000  0.71429  1.0000
  Ag  Ag212     1.0  0.00000  0.21429  0.78571  1.0000
  Ag  Ag213     1.0  0.00000  0.25000  0.82143  1.0000
  Ag  Ag214     1.0  0.03571  0.21429  0.82143  1.0000
  Ag  Ag215     1.0  0.03571  0.25000  0.78571  1.0000
  Ag  Ag216     1.0  0.00000  0.21429  0.85714  1.0000
  Ag  Ag217     1.0  0.00000  0.25000  0.89286  1.0000
  Ag  Ag218     1.0  0.03571  0.21429  0.89286  1.0000
  Ag  Ag219     1.0  0.03571  0.25000  0.85714  1.0000
  Ag  Ag220     1.0  0.00000  0.21429  0.92857  1.0000
  Ag  Ag221     1.0  0.00000  0.25000  0.96429  1.0000
  Ag  Ag222     1.0  0.03571  0.21429  0.96429  1.0000
  Ag  Ag223     1.0  0.03571  0.25000  0.92857  1.0000
  Ag  Ag224     1.0  0.00000  0.28571  0.00000  1.0000
  Ag  Ag225     1.0  0.00000  0.32143  0.03571  1.0000
  Ag  Ag226     1.0  0.03571  0.28571  0.03571  1.0000
  Ag  Ag227     1.0  0.03571  0.32143  0.00000  1.0000
  Ag  Ag228     1.0  0.00000  0.28571  0.07143  1.0000
  Ag  Ag229     1.0  0.00000  0.32143  0.10714  1.0000
  Ag  Ag230     1.0  0.03571  0.28571  0.10714  1.0000
  Ag  Ag231     1.0  0.03571  0.32143  0.07143  1.0000
  Ag  Ag232     1.0  0.00000  0.28571  0.14286  1.0000
  Ag  Ag233     1.0  0.00000  0.32143  0.17857  1.0000
  Ag  Ag234     1.0  0.03571  0.28571  0.17857  1.0000
  Ag  Ag235     1.0  0.03571  0.32143  0.14286  1.0000
  Ag  Ag236     1.0  0.00000  0.28571  0.21429  1.0000
  Ag  Ag237     1.0  0.00000  0.32143  0.25000  1.0000
  Ag  Ag238     1.0  0.03571  0.28571  0.25000  1.0000
  Ag  Ag239     1.0  0.03571  0.32143  0.21429  1.0000
  Ag  Ag240     1.0  0.00000  0.28571  0.28571  1.0000
  Ag  Ag241     1.0  0.00000  0.32143  0.32143  1.0000
  Ag  Ag242     1.0  0.03571  0.28571  0.32143  1.0000
  Ag  Ag243     1.0  0.03571  0.32143  0.28571  1.0000
  Ag  Ag244     1.0  0.00000  0.28571  0.35714  1.0000
  Ag  Ag245     1.0  0.00000  0.32143  0.39286  1.0000
  Ag  Ag246     1.0  0.03571  0.28571  0.39286  1.0000
  Ag  Ag247     1.0  0.03571  0.32143  0.35714  1.0000
  Ag  Ag248     1.0  0.00000  0.28571  0.42857  1.0000
  Ag  Ag249     1.0  0.00000  0.32143  0.46429  1.0000
  Ag  Ag250     1.0  0.03571  0.28571  0.46429  1.0000
  Ag  Ag251     1.0  0.03571  0.32143  0.42857  1.0000
  Ag  Ag252     1.0  0.00000  0.28571  0.50000  1.0000
  Ag  Ag253     1.0  0.00000  0.32143  0.53571  1.0000
  Ag  Ag254     1.0  0.03571  0.28571  0.53571  1.0000
  Ag  Ag255     1.0  0.03571  0.32143  0.50000  1.0000
  Ag  Ag256     1.0  0.00000  0.28571  0.57143  1.0000
  Ag  Ag257     1.0  0.00000  0.32143  0.60714  1.0000
  Ag  Ag258     1.0  0.03571  0.28571  0.60714  1.0000
  Ag  Ag259     1.0  0.03571  0.32143  0.57143  1.0000
  Ag  Ag260     1.0  0.00000  0.28571  0.64286  1.0000
  Ag  Ag261     1.0  0.00000  0.32143  0.67857  1.0000
  Ag  Ag262     1.0  0.03571  0.28571  0.67857  1.0000
  Ag  Ag263     1.0  0.03571  0.32143  0.64286  1.0000
  Ag  Ag264     1.0  0.00000  0.28571  0.71429  1.0000
  Ag  Ag265     1.0  0.00000  0.32143  0.75000  1.0000
  Ag  Ag266     1.0  0.03571  0.28571  0.75000  1.0000
  Ag  Ag267     1.0  0.03571  0.32143  0.71429  1.0000
  Ag  Ag268     1.0  0.00000  0.28571  0.78571  1.0000
  Ag  Ag269     1.0  0.00000  0.32143  0.82143  1.0000
  Ag  Ag270     1.0  0.03571  0.28571  0.82143  1.0000
  Ag  Ag271     1.0  0.03571  0.32143  0.78571  1.0000
  Ag  Ag272     1.0  0.00000  0.28571  0.85714  1.0000
  Ag  Ag273     1.0  0.00000  0.32143  0.89286  1.0000
  Ag  Ag274     1.0  0.03571  0.28571  0.89286  1.0000
  Ag  Ag275     1.0  0.03571  0.32143  0.85714  1.0000
  Ag  Ag276     1.0  0.00000  0.28571  0.92857  1.0000
  Ag  Ag277     1.0  0.00000  0.32143  0.96429  1.0000
  Ag  Ag278     1.0  0.03571  0.28571  0.96429  1.0000
  Ag  Ag279     1.0  0.03571  0.32143  0.92857  1.0000
  Ag  Ag280     1.0  0.00000  0.35714  0.00000  1.0000
  Ag  Ag281     1.0  0.00000  0.39286  0.03571  1.0000
  Ag  Ag282     1.0  0.03571  0.35714  0.03571  1.0000
  Ag  Ag283     1.0  0.03571  0.39286  0.00000  1.0000
  Ag  Ag284     1.0  0.00000  0.35714  0.07143  1.0000
  Ag  Ag285     1.0  0.00000  0.39286  0.10714  1.0000
  Ag  Ag286     1.0  0.03571  0.35714  0.10714  1.0000
  Ag  Ag287     1.0  0.03571  0.39286  0.07143  1.0000
  Ag  Ag288     1.0  0.00000  0.35714  0.14286  1.0000
  Ag  Ag289     1.0  0.00000  0.39286  0.17857  1.0000
  Ag  Ag290     1.0  0.03571  0.35714  0.17857  1.0000
  Ag  Ag291     1.0  0.03571  0.39286  0.14286  1.0000
  Ag  Ag292     1.0  0.00000  0.35714  0.21429  1.0000
  Ag  Ag293     1.0  0.00000  0.39286  0.25000  1.0000
  Ag  Ag294     1.0  0.03571  0.35714  0.25000  1.0000
  Ag  Ag295     1.0  0.03571  0.39286  0.21429  1.0000
  Ag  Ag296     1.0  0.00000  0.35714  0.28571  1.0000
  Ag  Ag297     1.0  0.00000  0.39286  0.32143  1.0000
  Ag  Ag298     1.0  0.03571  0.35714  0.32143  1.0000
  Ag  Ag299     1.0  0.03571  0.39286  0.28571  1.0000
  Ag  Ag300     1.0  0.00000  0.35714  0.35714  1.0000
  Ag  Ag301     1.0  0.00000  0.39286  0.39286  1.0000
  Ag  Ag302     1.0  0.03571  0.35714  0.39286  1.0000
  Ag  Ag303     1.0  0.03571  0.39286  0.35714  1.0000
  Ag  Ag304     1.0  0.00000  0.35714  0.42857  1.0000
  Ag  Ag305     1.0  0.00000  0.39286  0.46429  1.0000
  Ag  Ag306     1.0  0.03571  0.35714  0.46429  1.0000
  Ag  Ag307     1.0  0.03571  0.39286  0.42857  1.0000
  Ag  Ag308     1.0  0.00000  0.35714  0.50000  1.0000
  Ag  Ag309     1.0  0.00000  0.39286  0.53571  1.0000
  Ag  Ag310     1.0  0.03571  0.35714  0.53571  1.0000
  Ag  Ag311     1.0  0.03571  0.39286  0.50000  1.0000
  Ag  Ag312     1.0  0.00000  0.35714  0.57143  1.0000
  Ag  Ag313     1.0  0.00000  0.39286  0.60714  1.0000
  Ag  Ag314     1.0  0.03571  0.35714  0.60714  1.0000
  Ag  Ag315     1.0  0.03571  0.39286  0.57143  1.0000
  Ag  Ag316     1.0  0.00000  0.35714  0.64286  1.0000
  Ag  Ag317     1.0  0.00000  0.39286  0.67857  1.0000
  Ag  Ag318     1.0  0.03571  0.35714  0.67857  1.0000
  Ag  Ag319     1.0  0.03571  0.39286  0.64286  1.0000
  Ag  Ag320     1.0  0.00000  0.35714  0.71429  1.0000
  Ag  Ag321     1.0  0.00000  0.39286  0.75000  1.0000
  Ag  Ag322     1.0  0.03571  0.35714  0.75000  1.0000
  Ag  Ag323     1.0  0.03571  0.39286  0.71429  1.0000
  Ag  Ag324     1.0  0.00000  0.35714  0.78571  1.0000
  Ag  Ag325     1.0  0.00000  0.39286  0.82143  1.0000
  Ag  Ag326     1.0  0.03571  0.35714  0.82143  1.0000
  Ag  Ag327     1.0  0.03571  0.39286  0.78571  1.0000
  Ag  Ag328     1.0  0.00000  0.35714  0.85714  1.0000
  Ag  Ag329     1.0  0.00000  0.39286  0.89286  1.0000
  Ag  Ag330     1.0  0.03571  0.35714  0.89286  1.0000
  Ag  Ag331     1.0  0.03571  0.39286  0.85714  1.0000
  Ag  Ag332     1.0  0.00000  0.35714  0.92857  1.0000
  Ag  Ag333     1.0  0.00000  0.39286  0.96429  1.0000
  Ag  Ag334     1.0  0.03571  0.35714  0.96429  1.0000
  Ag  Ag335     1.0  0.03571  0.39286  0.92857  1.0000
  Ag  Ag336     1.0  0.00000  0.42857  0.00000  1.0000
  Ag  Ag337     1.0  0.00000  0.46429  0.03571  1.0000
  Ag  Ag338     1.0  0.03571  0.42857  0.03571  1.0000
  Ag  Ag339     1.0  0.03571  0.46429  0.00000  1.0000
  Ag  Ag340     1.0  0.00000  0.42857  0.07143  1.0000
  Ag  Ag341     1.0  0.00000  0.46429  0.10714  1.0000
  Ag  Ag342     1.0  0.03571  0.42857  0.10714  1.0000
  Ag  Ag343     1.0  0.03571  0.46429  0.07143  1.0000
  Ag  Ag344     1.0  0.00000  0.42857  0.14286  1.0000
  Ag  Ag345     1.0  0.00000  0.46429  0.17857  1.0000
  Ag  Ag346     1.0  0.03571  0.42857  0.17857  1.0000
  Ag  Ag347     1.0  0.03571  0.46429  0.14286  1.0000
  Ag  Ag348     1.0  0.00000  0.42857  0.21429  1.0000
  Ag  Ag349     1.0  0.00000  0.46429  0.25000  1.0000
  Ag  Ag350     1.0  0.03571  0.42857  0.25000  1.0000
  Ag  Ag351     1.0  0.03571  0.46429  0.21429  1.0000
  Ag  Ag352     1.0  0.00000  0.42857  0.28571  1.0000
  Ag  Ag353     1.0  0.00000  0.46429  0.32143  1.0000
  Ag  Ag354     1.0  0.03571  0.42857  0.32143  1.0000
  Ag  Ag355     1.0  0.03571  0.46429  0.28571  1.0000
  Ag  Ag356     1.0  0.00000  0.42857  0.35714  1.0000
  Ag  Ag357     1.0  0.00000  0.46429  0.39286  1.0000
  Ag  Ag358     1.0  0.03571  0.42857  0.39286  1.0000
  Ag  Ag359     1.0  0.03571  0.46429  0.35714  1.0000
  Ag  Ag360     1.0  0.00000  0.42857  0.42857  1.0000
  Ag  Ag361     1.0  0.00000  0.46429  0.46429  1.0000
  Ag  Ag362     1.0  0.03571  0.42857  0.46429  1.0000
  Ag  Ag363     1.0  0.03571  0.46429  0.42857  1.0000
  Ag  Ag364     1.0  0.00000  0.42857  0.50000  1.0000
  Ag  Ag365     1.0  0.00000  0.46429  0.53571  1.0000
  Ag  Ag366     1.0  0.03571  0.42857  0.53571  1.0000
  Ag  Ag367     1.0  0.03571  0.46429  0.50000  1.0000
  Ag  Ag368     1.0  0.00000  0.42857  0.57143  1.0000
  Ag  Ag369     1.0  0.00000  0.46429  0.60714  1.0000
  Ag  Ag370     1.0  0.03571  0.42857  0.60714  1.0000
  Ag  Ag371     1.0  0.03571  0.46429  0.57143  1.0000
  Ag  Ag372     1.0  0.00000  0.42857  0.64286  1.0000
  Ag  Ag373     1.0  0.00000  0.46429  0.67857  1.0000
  Ag  Ag374     1.0  0.03571  0.42857  0.67857  1.0000
  Ag  Ag375     1.0  0.03571  0.46429  0.64286  1.0000
  Ag  Ag376     1.0  0.00000  0.42857  0.71429  1.0000
  Ag  Ag377     1.0  0.00000  0.46429  0.75000  1.0000
  Ag  Ag378     1.0  0.03571  0.42857  0.75000  1.0000
  Ag  Ag379     1.0  0.03571  0.46429  0.71429  1.0000
  Ag  Ag380     1.0  0.00000  0.42857  0.78571  1.0000
  Ag  Ag381     1.0  0.00000  0.46429  0.82143  1.0000
  Ag  Ag382     1.0  0.03571  0.42857  0.82143  1.0000
  Ag  Ag383     1.0  0.03571  0.46429  0.78571  1.0000
  Ag  Ag384     1.0  0.00000  0.42857  0.85714  1.0000
  Ag  Ag385     1.0  0.00000  0.46429  0.89286  1.0000
  Ag  Ag386     1.0  0.03571  0.42857  0.89286  1.0000
  Ag  Ag387     1.0  0.03571  0.46429  0.85714  1.0000
  Ag  Ag388     1.0  0.00000  0.42857  0.92857  1.0000
  Ag  Ag389     1.0  0.00000  0.46429  0.96429  1.0000
  Ag  Ag390     1.0  0.03571  0.42857  0.96429  1.0000
  Ag  Ag391     1.0  0.03571  0.46429  0.92857  1.0000
  Ag  Ag392     1.0  0.00000  0.50000  0.00000  1.0000
  Ag  Ag393     1.0  0.00000  0.53571  0.03571  1.0000
  Ag  Ag394     1.0  0.03571  0.50000  0.03571  1.0000
  Ag  Ag395     1.0  0.03571  0.53571  0.00000  1.0000
  Ag  Ag396     1.0  0.00000  0.50000  0.07143  1.0000
  Ag  Ag397     1.0  0.00000  0.53571  0.10714  1.0000
  Ag  Ag398     1.0  0.03571  0.50000  0.10714  1.0000
  Ag  Ag399     1.0  0.03571  0.53571  0.07143  1.0000
  Ag  Ag400     1.0  0.00000  0.50000  0.14286  1.0000
  Ag  Ag401     1.0  0.00000  0.53571  0.17857  1.0000
  Ag  Ag402     1.0  0.03571  0.50000  0.17857  1.0000
  Ag  Ag403     1.0  0.03571  0.53571  0.14286  1.0000
  Ag  Ag404     1.0  0.00000  0.50000  0.21429  1.0000
  Ag  Ag405     1.0  0.00000  0.53571  0.25000  1.0000
  Ag  Ag406     1.0  0.03571  0.50000  0.25000  1.0000
  Ag  Ag407     1.0  0.03571  0.53571  0.21429  1.0000
  Ag  Ag408     1.0  0.00000  0.50000  0.28571  1.0000
  Ag  Ag409     1.0  0.00000  0.53571  0.32143  1.0000
  Ag  Ag410     1.0  0.03571  0.50000  0.32143  1.0000
  Ag  Ag411     1.0  0.03571  0.53571  0.28571  1.0000
  Ag  Ag412     1.0  0.00000  0.50000  0.35714  1.0000
  Ag  Ag413     1.0  0.00000  0.53571  0.39286  1.0000
  Ag  Ag414     1.0  0.03571  0.50000  0.39286  1.0000
  Ag  Ag415     1.0  0.03571  0.53571  0.35714  1.0000
  Ag  Ag416     1.0  0.00000  0.50000  0.42857  1.0000
  Ag  Ag417     1.0  0.00000  0.53571  0.46429  1.0000
  Ag  Ag418     1.0  0.03571  0.50000  0.46429  1.0000
  Ag  Ag419     1.0  0.03571  0.53571  0.42857  1.0000
  Ag  Ag420     1.0  0.00000  0.50000  0.50000  1.0000
  Ag  Ag421     1.0  0.00000  0.53571  0.53571  1.0000
  Ag  Ag422     1.0  0.03571  0.50000  0.53571  1.0000
  Ag  Ag423     1.0  0.03571  0.53571  0.50000  1.0000
  Ag  Ag424     1.0  0.00000  0.50000  0.57143  1.0000
  Ag  Ag425     1.0  0.00000  0.53571  0.60714  1.0000
  Ag  Ag426     1.0  0.03571  0.50000  0.60714  1.0000
  Ag  Ag427     1.0  0.03571  0.53571  0.57143  1.0000
  Ag  Ag428     1.0  0.00000  0.50000  0.64286  1.0000
  Ag  Ag429     1.0  0.00000  0.53571  0.67857  1.0000
  Ag  Ag430     1.0  0.03571  0.50000  0.67857  1.0000
  Ag  Ag431     1.0  0.03571  0.53571  0.64286  1.0000
  Ag  Ag432     1.0  0.00000  0.50000  0.71429  1.0000
  Ag  Ag433     1.0  0.00000  0.53571  0.75000  1.0000
  Ag  Ag434     1.0  0.03571  0.50000  0.75000  1.0000
  Ag  Ag435     1.0  0.03571  0.53571  0.71429  1.0000
  Ag  Ag436     1.0  0.00000  0.50000  0.78571  1.0000
  Ag  Ag437     1.0  0.00000  0.53571  0.82143  1.0000
  Ag  Ag438     1.0  0.03571  0.50000  0.82143  1.0000
  Ag  Ag439     1.0  0.03571  0.53571  0.78571  1.0000
  Ag  Ag440     1.0  0.00000  0.50000  0.85714  1.0000
  Ag  Ag441     1.0  0.00000  0.53571  0.89286  1.0000
  Ag  Ag442     1.0  0.03571  0.50000  0.89286  1.0000
  Ag  Ag443     1.0  0.03571  0.53571  0.85714  1.0000
  Ag  Ag444     1.0  0.00000  0.50000  0.92857  1.0000
  Ag  Ag445     1.0  0.00000  0.53571  0.96429  1.0000
  Ag  Ag446     1.0  0.03571  0.50000  0.96429  1.0000
  Ag  Ag447     1.0  0.03571  0.53571  0.92857  1.0000
  Ag  Ag448     1.0  0.00000  0.57143  0.00000  1.0000
  Ag  Ag449     1.0  0.00000  0.60714  0.03571  1.0000
  Ag  Ag450     1.0  0.03571  0.57143  0.03571  1.0000
  Ag  Ag451     1.0  0.03571  0.60714  0.00000  1.0000
  Ag  Ag452     1.0  0.00000  0.57143  0.07143  1.0000
  Ag  Ag453     1.0  0.00000  0.60714  0.10714  1.0000
  Ag  Ag454     1.0  0.03571  0.57143  0.10714  1.0000
  Ag  Ag455     1.0  0.03571  0.60714  0.07143  1.0000
  Ag  Ag456     1.0  0.00000  0.57143  0.14286  1.0000
  Ag  Ag457     1.0  0.00000  0.60714  0.17857  1.0000
  Ag  Ag458     1.0  0.03571  0.57143  0.17857  1.0000
  Ag  Ag459     1.0  0.03571  0.60714  0.14286  1.0000
  Ag  Ag460     1.0  0.00000  0.57143  0.21429  1.0000
  Ag  Ag461     1.0  0.00000  0.60714  0.25000  1.0000
  Ag  Ag462     1.0  0.03571  0.57143  0.25000  1.0000
  Ag  Ag463     1.0  0.03571  0.60714  0.21429  1.0000
  Ag  Ag464     1.0  0.00000  0.57143  0.28571  1.0000
  Ag  Ag465     1.0  0.00000  0.60714  0.32143  1.0000
  Ag  Ag466     1.0  0.03571  0.57143  0.32143  1.0000
  Ag  Ag467     1.0  0.03571  0.60714  0.28571  1.0000
  Ag  Ag468     1.0  0.00000  0.57143  0.35714  1.0000
  Ag  Ag469     1.0  0.00000  0.60714  0.39286  1.0000
  Ag  Ag470     1.0  0.03571  0.57143  0.39286  1.0000
  Ag  Ag471     1.0  0.03571  0.60714  0.35714  1.0000
  Ag  Ag472     1.0  0.00000  0.57143  0.42857  1.0000
  Ag  Ag473     1.0  0.00000  0.60714  0.46429  1.0000
  Ag  Ag474     1.0  0.03571  0.57143  0.46429  1.0000
  Ag  Ag475     1.0  0.03571  0.60714  0.42857  1.0000
  Ag  Ag476     1.0  0.00000  0.57143  0.50000  1.0000
  Ag  Ag477     1.0  0.00000  0.60714  0.53571  1.0000
  Ag  Ag478     1.0  0.03571  0.57143  0.53571  1.0000
  Ag  Ag479     1.0  0.03571  0.60714  0.50000  1.0000
  Ag  Ag480     1.0  0.00000  0.57143  0.57143  1.0000
  Ag  Ag481     1.0  0.00000  0.60714  0.60714  1.0000
  Ag  Ag482     1.0  0.03571  0.57143  0.60714  1.0000
  Ag  Ag483     1.0  0.03571  0.60714  0.57143  1.0000
  Ag  Ag484     1.0  0.00000  0.57143  0.64286  1.0000
  Ag  Ag485     1.0  0.00000  0.60714  0.67857  1.0000
  Ag  Ag486     1.0  0.03571  0.57143  0.67857  1.0000
  Ag  Ag487     1.0  0.03571  0.60714  0.64286  1.0000
  Ag  Ag488     1.0  0.00000  0.57143  0.71429  1.0000
  Ag  Ag489     1.0  0.00000  0.60714  0.75000  1.0000
  Ag  Ag490     1.0  0.03571  0.57143  0.75000  1.0000
  Ag  Ag491     1.0  0.03571  0.60714  0.71429  1.0000
  Ag  Ag492     1.0  0.00000  0.57143  0.78571  1.0000
  Ag  Ag493     1.0  0.00000  0.60714  0.82143  1.0000
  Ag  Ag494     1.0  0.03571  0.57143  0.82143  1.0000
  Ag  Ag495     1.0  0.03571  0.60714  0.78571  1.0000
  Ag  Ag496     1.0  0.00000  0.57143  0.85714  1.0000
  Ag  Ag497     1.0  0.00000  0.60714  0.89286  1.0000
  Ag  Ag498     1.0  0.03571  0.57143  0.89286  1.0000
  Ag  Ag499     1.0  0.03571  0.60714  0.85714  1.0000
  Ag  Ag500     1.0  0.00000  0.57143  0.92857  1.0000
  Ag  Ag501     1.0  0.00000  0.60714  0.96429  1.0000
  Ag  Ag502     1.0  0.03571  0.57143  0.96429  1.0000
  Ag  Ag503     1.0  0.03571  0.60714  0.92857  1.0000
  Ag  Ag504     1.0  0.00000  0.64286  0.00000  1.0000
  Ag  Ag505     1.0  0.00000  0.67857  0.03571  1.0000
  Ag  Ag506     1.0  0.03571  0.64286  0.03571  1.0000
  Ag  Ag507     1.0  0.03571  0.67857  0.00000  1.0000
  Ag  Ag508     1.0  0.00000  0.64286  0.07143  1.0000
  Ag  Ag509     1.0  0.00000  0.67857  0.10714  1.0000
  Ag  Ag510     1.0  0.03571  0.64286  0.10714  1.0000
  Ag  Ag511     1.0  0.03571  0.67857  0.07143  1.0000
  Ag  Ag512     1.0  0.00000  0.64286  0.14286  1.0000
  Ag  Ag513     1.0  0.00000  0.67857  0.17857  1.0000
  Ag  Ag514     1.0  0.03571  0.64286  0.17857  1.0000
  Ag  Ag515     1.0  0.03571  0.67857  0.14286  1.0000
  Ag  Ag516     1.0  0.00000  0.64286  0.21429  1.0000
  Ag  Ag517     1.0  0.00000  0.67857  0.25000  1.0000
  Ag  Ag518     1.0  0.03571  0.64286  0.25000  1.0000
  Ag  Ag519     1.0  0.03571  0.67857  0.21429  1.0000
  Ag  Ag520     1.0  0.00000  0.64286  0.28571  1.0000
  Ag  Ag521     1.0  0.00000  0.67857  0.32143  1.0000
  Ag  Ag522     1.0  0.03571  0.64286  0.32143  1.0000
  Ag  Ag523     1.0  0.03571  0.67857  0.28571  1.0000
  Ag  Ag524     1.0  0.00000  0.64286  0.35714  1.0000
  Ag  Ag525     1.0  0.00000  0.67857  0.39286  1.0000
  Ag  Ag526     1.0  0.03571  0.64286  0.39286  1.0000
  Ag  Ag527     1.0  0.03571  0.67857  0.35714  1.0000
  Ag  Ag528     1.0  0.00000  0.64286  0.42857  1.0000
  Ag  Ag529     1.0  0.00000  0.67857  0.46429  1.0000
  Ag  Ag530     1.0  0.03571  0.64286  0.46429  1.0000
  Ag  Ag531     1.0  0.03571  0.67857  0.42857  1.0000
  Ag  Ag532     1.0  0.00000  0.64286  0.50000  1.0000
  Ag  Ag533     1.0  0.00000  0.67857  0.53571  1.0000
  Ag  Ag534     1.0  0.03571  0.64286  0.53571  1.0000
  Ag  Ag535     1.0  0.03571  0.67857  0.50000  1.0000
  Ag  Ag536     1.0  0.00000  0.64286  0.57143  1.0000
  Ag  Ag537     1.0  0.00000  0.67857  0.60714  1.0000
  Ag  Ag538     1.0  0.03571  0.64286  0.60714  1.0000
  Ag  Ag539     1.0  0.03571  0.67857  0.57143  1.0000
  Ag  Ag540     1.0  0.00000  0.64286  0.64286  1.0000
  Ag  Ag541     1.0  0.00000  0.67857  0.67857  1.0000
  Ag  Ag542     1.0  0.03571  0.64286  0.67857  1.0000
  Ag  Ag543     1.0  0.03571  0.67857  0.64286  1.0000
  Ag  Ag544     1.0  0.00000  0.64286  0.71429  1.0000
  Ag  Ag545     1.0  0.00000  0.67857  0.75000  1.0000
  Ag  Ag546     1.0  0.03571  0.64286  0.75000  1.0000
  Ag  Ag547     1.0  0.03571  0.67857  0.71429  1.0000
  Ag  Ag548     1.0  0.00000  0.64286  0.78571  1.0000
  Ag  Ag549     1.0  0.00000  0.67857  0.82143  1.0000
  Ag  Ag550     1.0  0.03571  0.64286  0.82143  1.0000
  Ag  Ag551     1.0  0.03571  0.67857  0.78571  1.0000
  Ag  Ag552     1.0  0.00000  0.64286  0.85714  1.0000
  Ag  Ag553     1.0  0.00000  0.67857  0.89286  1.0000
  Ag  Ag554     1.0  0.03571  0.64286  0.89286  1.0000
  Ag  Ag555     1.0  0.03571  0.67857  0.85714  1.0000
  Ag  Ag556     1.0  0.00000  0.64286  0.92857  1.0000
  Ag  Ag557     1.0  0.00000  0.67857  0.96429  1.0000
  Ag  Ag558     1.0  0.03571  0.64286  0.96429  1.0000
  Ag  Ag559     1.0  0.03571  0.67857  0.92857  1.0000
  Ag  Ag560     1.0  0.00000  0.71429  0.00000  1.0000
  Ag  Ag561     1.0  0.00000  0.75000  0.03571  1.0000
  Ag  Ag562     1.0  0.03571  0.71429  0.03571  1.0000
  Ag  Ag563     1.0  0.03571  0.75000  0.00000  1.0000
  Ag  Ag564     1.0  0.00000  0.71429  0.07143  1.0000
  Ag  Ag565     1.0  0.00000  0.75000  0.10714  1.0000
  Ag  Ag566     1.0  0.03571  0.71429  0.10714  1.0000
  Ag  Ag567     1.0  0.03571  0.75000  0.07143  1.0000
  Ag  Ag568     1.0  0.00000  0.71429  0.14286  1.0000
  Ag  Ag569     1.0  0.00000  0.75000  0.17857  1.0000
  Ag  Ag570     1.0  0.03571  0.71429  0.17857  1.0000
  Ag  Ag571     1.0  0.03571  0.75000  0.14286  1.0000
  Ag  Ag572     1.0  0.00000  0.71429  0.21429  1.0000
  Ag  Ag573     1.0  0.00000  0.75000  0.25000  1.0000
  Ag  Ag574     1.0  0.03571  0.71429  0.25000  1.0000
  Ag  Ag575     1.0  0.03571  0.75000  0.21429  1.0000
  Ag  Ag576     1.0  0.00000  0.71429  0.28571  1.0000
  Ag  Ag577     1.0  0.00000  0.75000  0.32143  1.0000
  Ag  Ag578     1.0  0.03571  0.71429  0.32143  1.0000
  Ag  Ag579     1.0  0.03571  0.75000  0.28571  1.0000
  Ag  Ag580     1.0  0.00000  0.71429  0.35714  1.0000
  Ag  Ag581     1.0  0.00000  0.75000  0.39286  1.0000
  Ag  Ag582     1.0  0.03571  0.71429  0.39286  1.0000
  Ag  Ag583     1.0  0.03571  0.75000  0.35714  1.0000
  Ag  Ag584     1.0  0.00000  0.71429  0.42857  1.0000
  Ag  Ag585     1.0  0.00000  0.75000  0.46429  1.0000
  Ag  Ag586     1.0  0.03571  0.71429  0.46429  1.0000
  Ag  Ag587     1.0  0.03571  0.75000  0.42857  1.0000
  Ag  Ag588     1.0  0.00000  0.71429  0.50000  1.0000
  Ag  Ag589     1.0  0.00000  0.75000  0.53571  1.0000
  Ag  Ag590     1.0  0.03571  0.71429  0.53571  1.0000
  Ag  Ag591     1.0  0.03571  0.75000  0.50000  1.0000
  Ag  Ag592     1.0  0.00000  0.71429  0.57143  1.0000
  Ag  Ag593     1.0  0.00000  0.75000  0.60714  1.0000
  Ag  Ag594     1.0  0.03571  0.71429  0.60714  1.0000
  Ag  Ag595     1.0  0.03571  0.75000  0.57143  1.0000
  Ag  Ag596     1.0  0.00000  0.71429  0.64286  1.0000
  Ag  Ag597     1.0  0.00000  0.75000  0.67857  1.0000
  Ag  Ag598     1.0  0.03571  0.71429  0.67857  1.0000
  Ag  Ag599     1.0  0.03571  0.75000  0.64286  1.0000
  Ag  Ag600     1.0  0.00000  0.71429  0.71429  1.0000
  Ag  Ag601     1.0  0.00000  0.75000  0.75000  1.0000
  Ag  Ag602     1.0  0.03571  0.71429  0.75000  1.0000
  Ag  Ag603     1.0  0.03571  0.75000  0.71429  1.0000
  Ag  Ag604     1.0  0.00000  0.71429  0.78571  1.0000
  Ag  Ag605     1.0  0.00000  0.75000  0.82143  1.0000
  Ag  Ag606     1.0  0.03571  0.71429  0.82143  1.0000
  Ag  Ag607     1.0  0.03571  0.75000  0.78571  1.0000
  Ag  Ag608     1.0  0.00000  0.71429  0.85714  1.0000
  Ag  Ag609     1.0  0.00000  0.75000  0.89286  1.0000
  Ag  Ag610     1.0  0.03571  0.71429  0.89286  1.0000
  Ag  Ag611     1.0  0.03571  0.75000  0.85714  1.0000
  Ag  Ag612     1.0  0.00000  0.71429  0.92857  1.0000
  Ag  Ag613     1.0  0.00000  0.75000  0.96429  1.0000
  Ag  Ag614     1.0  0.03571  0.71429  0.96429  1.0000
  Ag  Ag615     1.0  0.03571  0.75000  0.92857  1.0000
  Ag  Ag616     1.0  0.00000  0.78571  0.00000  1.0000
  Ag  Ag617     1.0  0.00000  0.82143  0.03571  1.0000
  Ag  Ag618     1.0  0.03571  0.78571  0.03571  1.0000
  Ag  Ag619     1.0  0.03571  0.82143  0.00000  1.0000
  Ag  Ag620     1.0  0.00000  0.78571  0.07143  1.0000
  Ag  Ag621     1.0  0.00000  0.82143  0.10714  1.0000
  Ag  Ag622     1.0  0.03571  0.78571  0.10714  1.0000
  Ag  Ag623     1.0  0.03571  0.82143  0.07143  1.0000
  Ag  Ag624     1.0  0.00000  0.78571  0.14286  1.0000
  Ag  Ag625     1.0  0.00000  0.82143  0.17857  1.0000
  Ag  Ag626     1.0  0.03571  0.78571  0.17857  1.0000
  Ag  Ag627     1.0  0.03571  0.82143  0.14286  1.0000
  Ag  Ag628     1.0  0.00000  0.78571  0.21429  1.0000
  Ag  Ag629     1.0  0.00000  0.82143  0.25000  1.0000
  Ag  Ag630     1.0  0.03571  0.78571  0.25000  1.0000
  Ag  Ag631     1.0  0.03571  0.82143  0.21429  1.0000
  Ag  Ag632     1.0  0.00000  0.78571  0.28571  1.0000
  Ag  Ag633     1.0  0.00000  0.82143  0.32143  1.0000
  Ag  Ag634     1.0  0.03571  0.78571  0.32143  1.0000
  Ag  Ag635     1.0  0.03571  0.82143  0.28571  1.0000
  Ag  Ag636     1.0  0.00000  0.78571  0.35714  1.0000
  Ag  Ag637     1.0  0.00000  0.82143  0.39286  1.0000
  Ag  Ag638     1.0  0.03571  0.78571  0.39286  1.0000
  Ag  Ag639     1.0  0.03571  0.82143  0.35714  1.0000
  Ag  Ag640     1.0  0.00000  0.78571  0.42857  1.0000
  Ag  Ag641     1.0  0.00000  0.82143  0.46429  1.0000
  Ag  Ag642     1.0  0.03571  0.78571  0.46429  1.0000
  Ag  Ag643     1.0  0.03571  0.82143  0.42857  1.0000
  Ag  Ag644     1.0  0.00000  0.78571  0.50000  1.0000
  Ag  Ag645     1.0  0.00000  0.82143  0.53571  1.0000
  Ag  Ag646     1.0  0.03571  0.78571  0.53571  1.0000
  Ag  Ag647     1.0  0.03571  0.82143  0.50000  1.0000
  Ag  Ag648     1.0  0.00000  0.78571  0.57143  1.0000
  Ag  Ag649     1.0  0.00000  0.82143  0.60714  1.0000
  Ag  Ag650     1.0  0.03571  0.78571  0.60714  1.0000
  Ag  Ag651     1.0  0.03571  0.82143  0.57143  1.0000
  Ag  Ag652     1.0  0.00000  0.78571  0.64286  1.0000
  Ag  Ag653     1.0  0.00000  0.82143  0.67857  1.0000
  Ag  Ag654     1.0  0.03571  0.78571  0.67857  1.0000
  Ag  Ag655     1.0  0.03571  0.82143  0.64286  1.0000
  Ag  Ag656     1.0  0.00000  0.78571  0.71429  1.0000
  Ag  Ag657     1.0  0.00000  0.82143  0.75000  1.0000
  Ag  Ag658     1.0  0.03571  0.78571  0.75000  1.0000
  Ag  Ag659     1.0  0.03571  0.82143  0.71429  1.0000
  Ag  Ag660     1.0  0.00000  0.78571  0.78571  1.0000
  Ag  Ag661     1.0  0.00000  0.82143  0.82143  1.0000
  Ag  Ag662     1.0  0.03571  0.78571  0.82143  1.0000
  Ag  Ag663     1.0  0.03571  0.82143  0.78571  1.0000
  Ag  Ag664     1.0  0.00000  0.78571  0.85714  1.0000
  Ag  Ag665     1.0  0.00000  0.82143  0.89286  1.0000
  Ag  Ag666     1.0  0.03571  0.78571  0.89286  1.0000
  Ag  Ag667     1.0  0.03571  0.82143  0.85714  1.0000
  Ag  Ag668     1.0  0.00000  0.78571  0.92857  1.0000
  Ag  Ag669     1.0  0.00000  0.82143  0.96429  1.0000
  Ag  Ag670     1.0  0.03571  0.78571  0.96429  1.0000
  Ag  Ag671     1.0  0.03571  0.82143  0.92857  1.0000
  Ag  Ag672     1.0  0.00000  0.85714  0.00000  1.0000
  Ag  Ag673     1.0  0.00000  0.89286  0.03571  1.0000
  Ag  Ag674     1.0  0.03571  0.85714  0.03571  1.0000
  Ag  Ag675     1.0  0.03571  0.89286  0.00000  1.0000
  Ag  Ag676     1.0  0.00000  0.85714  0.07143  1.0000
  Ag  Ag677     1.0  0.00000  0.89286  0.10714  1.0000
  Ag  Ag678     1.0  0.03571  0.85714  0.10714  1.0000
  Ag  Ag679     1.0  0.03571  0.89286  0.07143  1.0000
  Ag  Ag680     1.0  0.00000  0.85714  0.14286  1.0000
  Ag  Ag681     1.0  0.00000  0.89286  0.17857  1.0000
  Ag  Ag682     1.0  0.03571  0.85714  0.17857  1.0000
  Ag  Ag683     1.0  0.03571  0.89286  0.14286  1.0000
  Ag  Ag684     1.0  0.00000  0.85714  0.21429  1.0000
  Ag  Ag685     1.0  0.00000  0.89286  0.25000  1.0000
  Ag  Ag686     1.0  0.03571  0.85714  0.25000  1.0000
  Ag  Ag687     1.0  0.03571  0.89286  0.21429  1.0000
  Ag  Ag688     1.0  0.00000  0.85714  0.28571  1.0000
  Ag  Ag689     1.0  0.00000  0.89286  0.32143  1.0000
  Ag  Ag690     1.0  0.03571  0.85714  0.32143  1.0000
  Ag  Ag691     1.0  0.03571  0.89286  0.28571  1.0000
  Ag  Ag692     1.0  0.00000  0.85714  0.35714  1.0000
  Ag  Ag693     1.0  0.00000  0.89286  0.39286  1.0000
  Ag  Ag694     1.0  0.03571  0.85714  0.39286  1.0000
  Ag  Ag695     1.0  0.03571  0.89286  0.35714  1.0000
  Ag  Ag696     1.0  0.00000  0.85714  0.42857  1.0000
  Ag  Ag697     1.0  0.00000  0.89286  0.46429  1.0000
  Ag  Ag698     1.0  0.03571  0.85714  0.46429  1.0000
  Ag  Ag699     1.0  0.03571  0.89286  0.42857  1.0000
  Ag  Ag700     1.0  0.00000  0.85714  0.50000  1.0000
  Ag  Ag701     1.0  0.00000  0.89286  0.53571  1.0000
  Ag  Ag702     1.0  0.03571  0.85714  0.53571  1.0000
  Ag  Ag703     1.0  0.03571  0.89286  0.50000  1.0000
  Ag  Ag704     1.0  0.00000  0.85714  0.57143  1.0000
  Ag  Ag705     1.0  0.00000  0.89286  0.60714  1.0000
  Ag  Ag706     1.0  0.03571  0.85714  0.60714  1.0000
  Ag  Ag707     1.0  0.03571  0.89286  0.57143  1.0000
  Ag  Ag708     1.0  0.00000  0.85714  0.64286  1.0000
  Ag  Ag709     1.0  0.00000  0.89286  0.67857  1.0000
  Ag  Ag710     1.0  0.03571  0.85714  0.67857  1.0000
  Ag  Ag711     1.0  0.03571  0.89286  0.64286  1.0000
  Ag  Ag712     1.0  0.00000  0.85714  0.71429  1.0000
  Ag  Ag713     1.0  0.00000  0.89286  0.75000  1.0000
  Ag  Ag714     1.0  0.03571  0.85714  0.75000  1.0000
  Ag  Ag715     1.0  0.03571  0.89286  0.71429  1.0000
  Ag  Ag716     1.0  0.00000  0.85714  0.78571  1.0000
  Ag  Ag717     1.0  0.00000  0.89286  0.82143  1.0000
  Ag  Ag718     1.0  0.03571  0.85714  0.82143  1.0000
  Ag  Ag719     1.0  0.03571  0.89286  0.78571  1.0000
  Ag  Ag720     1.0  0.00000  0.85714  0.85714  1.0000
  Ag  Ag721     1.0  0.00000  0.89286  0.89286  1.0000
  Ag  Ag722     1.0  0.03571  0.85714  0.89286  1.0000
  Ag  Ag723     1.0  0.03571  0.89286  0.85714  1.0000
  Ag  Ag724     1.0  0.00000  0.85714  0.92857  1.0000
  Ag  Ag725     1.0  0.00000  0.89286  0.96429  1.0000
  Ag  Ag726     1.0  0.03571  0.85714  0.96429  1.0000
  Ag  Ag727     1.0  0.03571  0.89286  0.92857  1.0000
  Ag  Ag728     1.0  0.00000  0.92857  0.00000  1.0000
  Ag  Ag729     1.0  0.00000  0.96429  0.03571  1.0000
  Ag  Ag730     1.0  0.03571  0.92857  0.03571  1.0000
  Ag  Ag731     1.0  0.03571  0.96429  0.00000  1.0000
  Ag  Ag732     1.0  0.00000  0.92857  0.07143  1.0000
  Ag  Ag733     1.0  0.00000  0.96429  0.10714  1.0000
  Ag  Ag734     1.0  0.03571  0.92857  0.10714  1.0000
  Ag  Ag735     1.0  0.03571  0.96429  0.07143  1.0000
  Ag  Ag736     1.0  0.00000  0.92857  0.14286  1.0000
  Ag  Ag737     1.0  0.00000  0.96429  0.17857  1.0000
  Ag  Ag738     1.0  0.03571  0.92857  0.17857  1.0000
  Ag  Ag739     1.0  0.03571  0.96429  0.14286  1.0000
  Ag  Ag740     1.0  0.00000  0.92857  0.21429  1.0000
  Ag  Ag741     1.0  0.00000  0.96429  0.25000  1.0000
  Ag  Ag742     1.0  0.03571  0.92857  0.25000  1.0000
  Ag  Ag743     1.0  0.03571  0.96429  0.21429  1.0000
  Ag  Ag744     1.0  0.00000  0.92857  0.28571  1.0000
  Ag  Ag745     1.0  0.00000  0.96429  0.32143  1.0000
  Ag  Ag746     1.0  0.03571  0.92857  0.32143  1.0000
  Ag  Ag747     1.0  0.03571  0.96429  0.28571  1.0000
  Ag  Ag748     1.0  0.00000  0.92857  0.35714  1.0000
  Ag  Ag749     1.0  0.00000  0.96429  0.39286  1.0000
  Ag  Ag750     1.0  0.03571  0.92857  0.39286  1.0000
  Ag  Ag751     1.0  0.03571  0.96429  0.35714  1.0000
  Ag  Ag752     1.0  0.00000  0.92857  0.42857  1.0000
  Ag  Ag753     1.0  0.00000  0.96429  0.46429  1.0000
  Ag  Ag754     1.0  0.03571  0.92857  0.46429  1.0000
  Ag  Ag755     1.0  0.03571  0.96429  0.42857  1.0000
  Ag  Ag756     1.0  0.00000  0.92857  0.50000  1.0000
  Ag  Ag757     1.0  0.00000  0.96429  0.53571  1.0000
  Ag  Ag758     1.0  0.03571  0.92857  0.53571  1.0000
  Ag  Ag759     1.0  0.03571  0.96429  0.50000  1.0000
  Ag  Ag760     1.0  0.00000  0.92857  0.57143  1.0000
  Ag  Ag761     1.0  0.00000  0.96429  0.60714  1.0000
  Ag  Ag762     1.0  0.03571  0.92857  0.60714  1.0000
  Ag  Ag763     1.0  0.03571  0.96429  0.57143  1.0000
  Ag  Ag764     1.0  0.00000  0.92857  0.64286  1.0000
  Ag  Ag765     1.0  0.00000  0.96429  0.67857  1.0000
  Ag  Ag766     1.0  0.03571  0.92857  0.67857  1.0000
  Ag  Ag767     1.0  0.03571  0.96429  0.64286  1.0000
  Ag  Ag768     1.0  0.00000  0.92857  0.71429  1.0000
  Ag  Ag769     1.0  0.00000  0.96429  0.75000  1.0000
  Ag  Ag770     1.0  0.03571  0.92857  0.75000  1.0000
  Ag  Ag771     1.0  0.03571  0.96429  0.71429  1.0000
  Ag  Ag772     1.0  0.00000  0.92857  0.78571  1.0000
  Ag  Ag773     1.0  0.00000  0.96429  0.82143  1.0000
  Ag  Ag774     1.0  0.03571  0.92857  0.82143  1.0000
  Ag  Ag775     1.0  0.03571  0.96429  0.78571  1.0000
  Ag  Ag776     1.0  0.00000  0.92857  0.85714  1.0000
  Ag  Ag777     1.0  0.00000  0.96429  0.89286  1.0000
  Ag  Ag778     1.0  0.03571  0.92857  0.89286  1.0000
  Ag  Ag779     1.0  0.03571  0.96429  0.85714  1.0000
  Ag  Ag780     1.0  0.00000  0.92857  0.92857  1.0000
  Ag  Ag781     1.0  0.00000  0.96429  0.96429  1.0000
  Ag  Ag782     1.0  0.03571  0.92857  0.96429  1.0000
  Ag  Ag783     1.0  0.03571  0.96429  0.92857  1.0000
  Ag  Ag784     1.0  0.07143  0.00000  0.00000  1.0000
  Ag  Ag785     1.0  0.07143  0.03571  0.03571  1.0000
  Ag  Ag786     1.0  0.10714  0.00000  0.03571  1.0000
  Ag  Ag787     1.0  0.10714  0.03571  0.00000  1.0000
  Ag  Ag788     1.0  0.07143  0.00000  0.07143  1.0000
  Ag  Ag789     1.0  0.07143  0.03571  0.10714  1.0000
  Ag  Ag790     1.0  0.10714  0.00000  0.10714  1.0000
  Ag  Ag791     1.0  0.10714  0.03571  0.07143  1.0000
  Ag  Ag792     1.0  0.07143  0.00000  0.14286  1.0000
  Ag  Ag793     1.0  0.07143  0.03571  0.17857  1.0000
  Ag  Ag794     1.0  0.10714  0.00000  0.17857  1.0000
  Ag  Ag795     1.0  0.10714  0.03571  0.14286  1.0000
  Ag  Ag796     1.0  0.07143  0.00000  0.21429  1.0000
  Ag  Ag797     1.0  0.07143  0.03571  0.25000  1.0000
  Ag  Ag798     1.0  0.10714  0.00000  0.25000  1.0000
  Ag  Ag799     1.0  0.10714  0.03571  0.21429  1.0000
  Ag  Ag800     1.0  0.07143  0.00000  0.28571  1.0000
  Ag  Ag801     1.0  0.07143  0.03571  0.32143  1.0000
  Ag  Ag802     1.0  0.10714  0.00000  0.32143  1.0000
  Ag  Ag803     1.0  0.10714  0.03571  0.28571  1.0000
  Ag  Ag804     1.0  0.07143  0.00000  0.35714  1.0000
  Ag  Ag805     1.0  0.07143  0.03571  0.39286  1.0000
  Ag  Ag806     1.0  0.10714  0.00000  0.39286  1.0000
  Ag  Ag807     1.0  0.10714  0.03571  0.35714  1.0000
  Ag  Ag808     1.0  0.07143  0.00000  0.42857  1.0000
  Ag  Ag809     1.0  0.07143  0.03571  0.46429  1.0000
  Ag  Ag810     1.0  0.10714  0.00000  0.46429  1.0000
  Ag  Ag811     1.0  0.10714  0.03571  0.42857  1.0000
  Ag  Ag812     1.0  0.07143  0.00000  0.50000  1.0000
  Ag  Ag813     1.0  0.07143  0.03571  0.53571  1.0000
  Ag  Ag814     1.0  0.10714  0.00000  0.53571  1.0000
  Ag  Ag815     1.0  0.10714  0.03571  0.50000  1.0000
  Ag  Ag816     1.0  0.07143  0.00000  0.57143  1.0000
  Ag  Ag817     1.0  0.07143  0.03571  0.60714  1.0000
  Ag  Ag818     1.0  0.10714  0.00000  0.60714  1.0000
  Ag  Ag819     1.0  0.10714  0.03571  0.57143  1.0000
  Ag  Ag820     1.0  0.07143  0.00000  0.64286  1.0000
  Ag  Ag821     1.0  0.07143  0.03571  0.67857  1.0000
  Ag  Ag822     1.0  0.10714  0.00000  0.67857  1.0000
  Ag  Ag823     1.0  0.10714  0.03571  0.64286  1.0000
  Ag  Ag824     1.0  0.07143  0.00000  0.71429  1.0000
  Ag  Ag825     1.0  0.07143  0.03571  0.75000  1.0000
  Ag  Ag826     1.0  0.10714  0.00000  0.75000  1.0000
  Ag  Ag827     1.0  0.10714  0.03571  0.71429  1.0000
  Ag  Ag828     1.0  0.07143  0.00000  0.78571  1.0000
  Ag  Ag829     1.0  0.07143  0.03571  0.82143  1.0000
  Ag  Ag830     1.0  0.10714  0.00000  0.82143  1.0000
  Ag  Ag831     1.0  0.10714  0.03571  0.78571  1.0000
  Ag  Ag832     1.0  0.07143  0.00000  0.85714  1.0000
  Ag  Ag833     1.0  0.07143  0.03571  0.89286  1.0000
  Ag  Ag834     1.0  0.10714  0.00000  0.89286  1.0000
  Ag  Ag835     1.0  0.10714  0.03571  0.85714  1.0000
  Ag  Ag836     1.0  0.07143  0.00000  0.92857  1.0000
  Ag  Ag837     1.0  0.07143  0.03571  0.96429  1.0000
  Ag  Ag838     1.0  0.10714  0.00000  0.96429  1.0000
  Ag  Ag839     1.0  0.10714  0.03571  0.92857  1.0000
  Ag  Ag840     1.0  0.07143  0.07143  0.00000  1.0000
  Ag  Ag841     1.0  0.07143  0.10714  0.03571  1.0000
  Ag  Ag842     1.0  0.10714  0.07143  0.03571  1.0000
  Ag  Ag843     1.0  0.10714  0.10714  0.00000  1.0000
  Ag  Ag844     1.0  0.07143  0.07143  0.07143  1.0000
  Ag  Ag845     1.0  0.07143  0.10714  0.10714  1.0000
  Ag  Ag846     1.0  0.10714  0.07143  0.10714  1.0000
  Ag  Ag847     1.0  0.10714  0.10714  0.07143  1.0000
  Ag  Ag848     1.0  0.07143  0.07143  0.14286  1.0000
  Ag  Ag849     1.0  0.07143  0.10714  0.17857  1.0000
  Ag  Ag850     1.0  0.10714  0.07143  0.17857  1.0000
  Ag  Ag851     1.0  0.10714  0.10714  0.14286  1.0000
  Ag  Ag852     1.0  0.07143  0.07143  0.21429  1.0000
  Ag  Ag853     1.0  0.07143  0.10714  0.25000  1.0000
  Ag  Ag854     1.0  0.10714  0.07143  0.25000  1.0000
  Ag  Ag855     1.0  0.10714  0.10714  0.21429  1.0000
  Ag  Ag856     1.0  0.07143  0.07143  0.28571  1.0000
  Ag  Ag857     1.0  0.07143  0.10714  0.32143  1.0000
  Ag  Ag858     1.0  0.10714  0.07143  0.32143  1.0000
  Ag  Ag859     1.0  0.10714  0.10714  0.28571  1.0000
  Ag  Ag860     1.0  0.07143  0.07143  0.35714  1.0000
  Ag  Ag861     1.0  0.07143  0.10714  0.39286  1.0000
  Ag  Ag862     1.0  0.10714  0.07143  0.39286  1.0000
  Ag  Ag863     1.0  0.10714  0.10714  0.35714  1.0000
  Ag  Ag864     1.0  0.07143  0.07143  0.42857  1.0000
  Ag  Ag865     1.0  0.07143  0.10714  0.46429  1.0000
  Ag  Ag866     1.0  0.10714  0.07143  0.46429  1.0000
  Ag  Ag867     1.0  0.10714  0.10714  0.42857  1.0000
  Ag  Ag868     1.0  0.07143  0.07143  0.50000  1.0000
  Ag  Ag869     1.0  0.07143  0.10714  0.53571  1.0000
  Ag  Ag870     1.0  0.10714  0.07143  0.53571  1.0000
  Ag  Ag871     1.0  0.10714  0.10714  0.50000  1.0000
  Ag  Ag872     1.0  0.07143  0.07143  0.57143  1.0000
  Ag  Ag873     1.0  0.07143  0.10714  0.60714  1.0000
  Ag  Ag874     1.0  0.10714  0.07143  0.60714  1.0000
  Ag  Ag875     1.0  0.10714  0.10714  0.57143  1.0000
  Ag  Ag876     1.0  0.07143  0.07143  0.64286  1.0000
  Ag  Ag877     1.0  0.07143  0.10714  0.67857  1.0000
  Ag  Ag878     1.0  0.10714  0.07143  0.67857  1.0000
  Ag  Ag879     1.0  0.10714  0.10714  0.64286  1.0000
  Ag  Ag880     1.0  0.07143  0.07143  0.71429  1.0000
  Ag  Ag881     1.0  0.07143  0.10714  0.75000  1.0000
  Ag  Ag882     1.0  0.10714  0.07143  0.75000  1.0000
  Ag  Ag883     1.0  0.10714  0.10714  0.71429  1.0000
  Ag  Ag884     1.0  0.07143  0.07143  0.78571  1.0000
  Ag  Ag885     1.0  0.07143  0.10714  0.82143  1.0000
  Ag  Ag886     1.0  0.10714  0.07143  0.82143  1.0000
  Ag  Ag887     1.0  0.10714  0.10714  0.78571  1.0000
  Ag  Ag888     1.0  0.07143  0.07143  0.85714  1.0000
  Ag  Ag889     1.0  0.07143  0.10714  0.89286  1.0000
  Ag  Ag890     1.0  0.10714  0.07143  0.89286  1.0000
  Ag  Ag891     1.0  0.10714  0.10714  0.85714  1.0000
  Ag  Ag892     1.0  0.07143  0.07143  0.92857  1.0000
  Ag  Ag893     1.0  0.07143  0.10714  0.96429  1.0000
  Ag  Ag894     1.0  0.10714  0.07143  0.96429  1.0000
  Ag  Ag895     1.0  0.10714  0.10714  0.92857  1.0000
  Ag  Ag896     1.0  0.07143  0.14286  0.00000  1.0000
  Ag  Ag897     1.0  0.07143  0.17857  0.03571  1.0000
  Ag  Ag898     1.0  0.10714  0.14286  0.03571  1.0000
  Ag  Ag899     1.0  0.10714  0.17857  0.00000  1.0000
  Ag  Ag900     1.0  0.07143  0.14286  0.07143  1.0000
  Ag  Ag901     1.0  0.07143  0.17857  0.10714  1.0000
  Ag  Ag902     1.0  0.10714  0.14286  0.10714  1.0000
  Ag  Ag903     1.0  0.10714  0.17857  0.07143  1.0000
  Ag  Ag904     1.0  0.07143  0.14286  0.14286  1.0000
  Ag  Ag905     1.0  0.07143  0.17857  0.17857  1.0000
  Ag  Ag906     1.0  0.10714  0.14286  0.17857  1.0000
  Ag  Ag907     1.0  0.10714  0.17857  0.14286  1.0000
  Ag  Ag908     1.0  0.07143  0.14286  0.21429  1.0000
  Ag  Ag909     1.0  0.07143  0.17857  0.25000  1.0000
  Ag  Ag910     1.0  0.10714  0.14286  0.25000  1.0000
  Ag  Ag911     1.0  0.10714  0.17857  0.21429  1.0000
  Ag  Ag912     1.0  0.07143  0.14286  0.28571  1.0000
  Ag  Ag913     1.0  0.07143  0.17857  0.32143  1.0000
  Ag  Ag914     1.0  0.10714  0.14286  0.32143  1.0000
  Ag  Ag915     1.0  0.10714  0.17857  0.28571  1.0000
  Ag  Ag916     1.0  0.07143  0.14286  0.35714  1.0000
  Ag  Ag917     1.0  0.07143  0.17857  0.39286  1.0000
  Ag  Ag918     1.0  0.10714  0.14286  0.39286  1.0000
  Ag  Ag919     1.0  0.10714  0.17857  0.35714  1.0000
  Ag  Ag920     1.0  0.07143  0.14286  0.42857  1.0000
  Ag  Ag921     1.0  0.07143  0.17857  0.46429  1.0000
  Ag  Ag922     1.0  0.10714  0.14286  0.46429  1.0000
  Ag  Ag923     1.0  0.10714  0.17857  0.42857  1.0000
  Ag  Ag924     1.0  0.07143  0.14286  0.50000  1.0000
  Ag  Ag925     1.0  0.07143  0.17857  0.53571  1.0000
  Ag  Ag926     1.0  0.10714  0.14286  0.53571  1.0000
  Ag  Ag927     1.0  0.10714  0.17857  0.50000  1.0000
  Ag  Ag928     1.0  0.07143  0.14286  0.57143  1.0000
  Ag  Ag929     1.0  0.07143  0.17857  0.60714  1.0000
  Ag  Ag930     1.0  0.10714  0.14286  0.60714  1.0000
  Ag  Ag931     1.0  0.10714  0.17857  0.57143  1.0000
  Ag  Ag932     1.0  0.07143  0.14286  0.64286  1.0000
  Ag  Ag933     1.0  0.07143  0.17857  0.67857  1.0000
  Ag  Ag934     1.0  0.10714  0.14286  0.67857  1.0000
  Ag  Ag935     1.0  0.10714  0.17857  0.64286  1.0000
  Ag  Ag936     1.0  0.07143  0.14286  0.71429  1.0000
  Ag  Ag937     1.0  0.07143  0.17857  0.75000  1.0000
  Ag  Ag938     1.0  0.10714  0.14286  0.75000  1.0000
  Ag  Ag939     1.0  0.10714  0.17857  0.71429  1.0000
  Ag  Ag940     1.0  0.07143  0.14286  0.78571  1.0000
  Ag  Ag941     1.0  0.07143  0.17857  0.82143  1.0000
  Ag  Ag942     1.0  0.10714  0.14286  0.82143  1.0000
  Ag  Ag943     1.0  0.10714  0.17857  0.78571  1.0000
  Ag  Ag944     1.0  0.07143  0.14286  0.85714  1.0000
  Ag  Ag945     1.0  0.07143  0.17857  0.89286  1.0000
  Ag  Ag946     1.0  0.10714  0.14286  0.89286  1.0000
  Ag  Ag947     1.0  0.10714  0.17857  0.85714  1.0000
  Ag  Ag948     1.0  0.07143  0.14286  0.92857  1.0000
  Ag  Ag949     1.0  0.07143  0.17857  0.96429  1.0000
  Ag  Ag950     1.0  0.10714  0.14286  0.96429  1.0000
  Ag  Ag951     1.0  0.10714  0.17857  0.92857  1.0000
  Ag  Ag952     1.0  0.07143  0.21429  0.00000  1.0000
  Ag  Ag953     1.0  0.07143  0.25000  0.03571  1.0000
  Ag  Ag954     1.0  0.10714  0.21429  0.03571  1.0000
  Ag  Ag955     1.0  0.10714  0.25000  0.00000  1.0000
  Ag  Ag956     1.0  0.07143  0.21429  0.07143  1.0000
  Ag  Ag957     1.0  0.07143  0.25000  0.10714  1.0000
  Ag  Ag958     1.0  0.10714  0.21429  0.10714  1.0000
  Ag  Ag959     1.0  0.10714  0.25000  0.07143  1.0000
  Ag  Ag960     1.0  0.07143  0.21429  0.14286  1.0000
  Ag  Ag961     1.0  0.07143  0.25000  0.17857  1.0000
  Ag  Ag962     1.0  0.10714  0.21429  0.17857  1.0000
  Ag  Ag963     1.0  0.10714  0.25000  0.14286  1.0000
  Ag  Ag964     1.0  0.07143  0.21429  0.21429  1.0000
  Ag  Ag965     1.0  0.07143  0.25000  0.25000  1.0000
  Ag  Ag966     1.0  0.10714  0.21429  0.25000  1.0000
  Ag  Ag967     1.0  0.10714  0.25000  0.21429  1.0000
  Ag  Ag968     1.0  0.07143  0.21429  0.28571  1.0000
  Ag  Ag969     1.0  0.07143  0.25000  0.32143  1.0000
  Ag  Ag970     1.0  0.10714  0.21429  0.32143  1.0000
  Ag  Ag971     1.0  0.10714  0.25000  0.28571  1.0000
  Ag  Ag972     1.0  0.07143  0.21429  0.35714  1.0000
  Ag  Ag973     1.0  0.07143  0.25000  0.39286  1.0000
  Ag  Ag974     1.0  0.10714  0.21429  0.39286  1.0000
  Ag  Ag975     1.0  0.10714  0.25000  0.35714  1.0000
  Ag  Ag976     1.0  0.07143  0.21429  0.42857  1.0000
  Ag  Ag977     1.0  0.07143  0.25000  0.46429  1.0000
  Ag  Ag978     1.0  0.10714  0.21429  0.46429  1.0000
  Ag  Ag979     1.0  0.10714  0.25000  0.42857  1.0000
  Ag  Ag980     1.0  0.07143  0.21429  0.50000  1.0000
  Ag  Ag981     1.0  0.07143  0.25000  0.53571  1.0000
  Ag  Ag982     1.0  0.10714  0.21429  0.53571  1.0000
  Ag  Ag983     1.0  0.10714  0.25000  0.50000  1.0000
  Ag  Ag984     1.0  0.07143  0.21429  0.57143  1.0000
  Ag  Ag985     1.0  0.07143  0.25000  0.60714  1.0000
  Ag  Ag986     1.0  0.10714  0.21429  0.60714  1.0000
  Ag  Ag987     1.0  0.10714  0.25000  0.57143  1.0000
  Ag  Ag988     1.0  0.07143  0.21429  0.64286  1.0000
  Ag  Ag989     1.0  0.07143  0.25000  0.67857  1.0000
  Ag  Ag990     1.0  0.10714  0.21429  0.67857  1.0000
  Ag  Ag991     1.0  0.10714  0.25000  0.64286  1.0000
  Ag  Ag992     1.0  0.07143  0.21429  0.71429  1.0000
  Ag  Ag993     1.0  0.07143  0.25000  0.75000  1.0000
  Ag  Ag994     1.0  0.10714  0.21429  0.75000  1.0000
  Ag  Ag995     1.0  0.10714  0.25000  0.71429  1.0000
  Ag  Ag996     1.0  0.07143  0.21429  0.78571  1.0000
  Ag  Ag997     1.0  0.07143  0.25000  0.82143  1.0000
  Ag  Ag998     1.0  0.10714  0.21429  0.82143  1.0000
  Ag  Ag999     1.0  0.10714  0.25000  0.78571  1.0000
  Ag  Ag1000    1.0  0.07143  0.21429  0.85714  1.0000
  Ag  Ag1001    1.0  0.07143  0.25000  0.89286  1.0000
  Ag  Ag1002    1.0  0.10714  0.21429  0.89286  1.0000
  Ag  Ag1003    1.0  0.10714  0.25000  0.85714  1.0000
  Ag  Ag1004    1.0  0.07143  0.21429  0.92857  1.0000
  Ag  Ag1005    1.0  0.07143  0.25000  0.96429  1.0000
  Ag  Ag1006    1.0  0.10714  0.21429  0.96429  1.0000
  Ag  Ag1007    1.0  0.10714  0.25000  0.92857  1.0000
  Ag  Ag1008    1.0  0.07143  0.28571  0.00000  1.0000
  Ag  Ag1009    1.0  0.07143  0.32143  0.03571  1.0000
  Ag  Ag1010    1.0  0.10714  0.28571  0.03571  1.0000
  Ag  Ag1011    1.0  0.10714  0.32143  0.00000  1.0000
  Ag  Ag1012    1.0  0.07143  0.28571  0.07143  1.0000
  Ag  Ag1013    1.0  0.07143  0.32143  0.10714  1.0000
  Ag  Ag1014    1.0  0.10714  0.28571  0.10714  1.0000
  Ag  Ag1015    1.0  0.10714  0.32143  0.07143  1.0000
  Ag  Ag1016    1.0  0.07143  0.28571  0.14286  1.0000
  Ag  Ag1017    1.0  0.07143  0.32143  0.17857  1.0000
  Ag  Ag1018    1.0  0.10714  0.28571  0.17857  1.0000
  Ag  Ag1019    1.0  0.10714  0.32143  0.14286  1.0000
  Ag  Ag1020    1.0  0.07143  0.28571  0.21429  1.0000
  Ag  Ag1021    1.0  0.07143  0.32143  0.25000  1.0000
  Ag  Ag1022    1.0  0.10714  0.28571  0.25000  1.0000
  Ag  Ag1023    1.0  0.10714  0.32143  0.21429  1.0000
  Ag  Ag1024    1.0  0.07143  0.28571  0.28571  1.0000
  Ag  Ag1025    1.0  0.07143  0.32143  0.32143  1.0000
  Ag  Ag1026    1.0  0.10714  0.28571  0.32143  1.0000
  Ag  Ag1027    1.0  0.10714  0.32143  0.28571  1.0000
  Ag  Ag1028    1.0  0.07143  0.28571  0.35714  1.0000
  Ag  Ag1029    1.0  0.07143  0.32143  0.39286  1.0000
  Ag  Ag1030    1.0  0.10714  0.28571  0.39286  1.0000
  Ag  Ag1031    1.0  0.10714  0.32143  0.35714  1.0000
  Ag  Ag1032    1.0  0.07143  0.28571  0.42857  1.0000
  Ag  Ag1033    1.0  0.07143  0.32143  0.46429  1.0000
  Ag  Ag1034    1.0  0.10714  0.28571  0.46429  1.0000
  Ag  Ag1035    1.0  0.10714  0.32143  0.42857  1.0000
  Ag  Ag1036    1.0  0.07143  0.28571  0.50000  1.0000
  Ag  Ag1037    1.0  0.07143  0.32143  0.53571  1.0000
  Ag  Ag1038    1.0  0.10714  0.28571  0.53571  1.0000
  Ag  Ag1039    1.0  0.10714  0.32143  0.50000  1.0000
  Ag  Ag1040    1.0  0.07143  0.28571  0.57143  1.0000
  Ag  Ag1041    1.0  0.07143  0.32143  0.60714  1.0000
  Ag  Ag1042    1.0  0.10714  0.28571  0.60714  1.0000
  Ag  Ag1043    1.0  0.10714  0.32143  0.57143  1.0000
  Ag  Ag1044    1.0  0.07143  0.28571  0.64286  1.0000
  Ag  Ag1045    1.0  0.07143  0.32143  0.67857  1.0000
  Ag  Ag1046    1.0  0.10714  0.28571  0.67857  1.0000
  Ag  Ag1047    1.0  0.10714  0.32143  0.64286  1.0000
  Ag  Ag1048    1.0  0.07143  0.28571  0.71429  1.0000
  Ag  Ag1049    1.0  0.07143  0.32143  0.75000  1.0000
  Ag  Ag1050    1.0  0.10714  0.28571  0.75000  1.0000
  Ag  Ag1051    1.0  0.10714  0.32143  0.71429  1.0000
  Ag  Ag1052    1.0  0.07143  0.28571  0.78571  1.0000
  Ag  Ag1053    1.0  0.07143  0.32143  0.82143  1.0000
  Ag  Ag1054    1.0  0.10714  0.28571  0.82143  1.0000
  Ag  Ag1055    1.0  0.10714  0.32143  0.78571  1.0000
  Ag  Ag1056    1.0  0.07143  0.28571  0.85714  1.0000
  Ag  Ag1057    1.0  0.07143  0.32143  0.89286  1.0000
  Ag  Ag1058    1.0  0.10714  0.28571  0.89286  1.0000
  Ag  Ag1059    1.0  0.10714  0.32143  0.85714  1.0000
  Ag  Ag1060    1.0  0.07143  0.28571  0.92857  1.0000
  Ag  Ag1061    1.0  0.07143  0.32143  0.96429  1.0000
  Ag  Ag1062    1.0  0.10714  0.28571  0.96429  1.0000
  Ag  Ag1063    1.0  0.10714  0.32143  0.92857  1.0000
  Ag  Ag1064    1.0  0.07143  0.35714  0.00000  1.0000
  Ag  Ag1065    1.0  0.07143  0.39286  0.03571  1.0000
  Ag  Ag1066    1.0  0.10714  0.35714  0.03571  1.0000
  Ag  Ag1067    1.0  0.10714  0.39286  0.00000  1.0000
  Ag  Ag1068    1.0  0.07143  0.35714  0.07143  1.0000
  Ag  Ag1069    1.0  0.07143  0.39286  0.10714  1.0000
  Ag  Ag1070    1.0  0.10714  0.35714  0.10714  1.0000
  Ag  Ag1071    1.0  0.10714  0.39286  0.07143  1.0000
  Ag  Ag1072    1.0  0.07143  0.35714  0.14286  1.0000
  Ag  Ag1073    1.0  0.07143  0.39286  0.17857  1.0000
  Ag  Ag1074    1.0  0.10714  0.35714  0.17857  1.0000
  Ag  Ag1075    1.0  0.10714  0.39286  0.14286  1.0000
  Ag  Ag1076    1.0  0.07143  0.35714  0.21429  1.0000
  Ag  Ag1077    1.0  0.07143  0.39286  0.25000  1.0000
  Ag  Ag1078    1.0  0.10714  0.35714  0.25000  1.0000
  Ag  Ag1079    1.0  0.10714  0.39286  0.21429  1.0000
  Ag  Ag1080    1.0  0.07143  0.35714  0.28571  1.0000
  Ag  Ag1081    1.0  0.07143  0.39286  0.32143  1.0000
  Ag  Ag1082    1.0  0.10714  0.35714  0.32143  1.0000
  Ag  Ag1083    1.0  0.10714  0.39286  0.28571  1.0000
  Ag  Ag1084    1.0  0.07143  0.35714  0.35714  1.0000
  Ag  Ag1085    1.0  0.07143  0.39286  0.39286  1.0000
  Ag  Ag1086    1.0  0.10714  0.35714  0.39286  1.0000
  Ag  Ag1087    1.0  0.10714  0.39286  0.35714  1.0000
  Ag  Ag1088    1.0  0.07143  0.35714  0.42857  1.0000
  Ag  Ag1089    1.0  0.07143  0.39286  0.46429  1.0000
  Ag  Ag1090    1.0  0.10714  0.35714  0.46429  1.0000
  Ag  Ag1091    1.0  0.10714  0.39286  0.42857  1.0000
  Ag  Ag1092    1.0  0.07143  0.35714  0.50000  1.0000
  Ag  Ag1093    1.0  0.07143  0.39286  0.53571  1.0000
  Ag  Ag1094    1.0  0.10714  0.35714  0.53571  1.0000
  Ag  Ag1095    1.0  0.10714  0.39286  0.50000  1.0000
  Ag  Ag1096    1.0  0.07143  0.35714  0.57143  1.0000
  Ag  Ag1097    1.0  0.07143  0.39286  0.60714  1.0000
  Ag  Ag1098    1.0  0.10714  0.35714  0.60714  1.0000
  Ag  Ag1099    1.0  0.10714  0.39286  0.57143  1.0000
  Ag  Ag1100    1.0  0.07143  0.35714  0.64286  1.0000
  Ag  Ag1101    1.0  0.07143  0.39286  0.67857  1.0000
  Ag  Ag1102    1.0  0.10714  0.35714  0.67857  1.0000
  Ag  Ag1103    1.0  0.10714  0.39286  0.64286  1.0000
  Ag  Ag1104    1.0  0.07143  0.35714  0.71429  1.0000
  Ag  Ag1105    1.0  0.07143  0.39286  0.75000  1.0000
  Ag  Ag1106    1.0  0.10714  0.35714  0.75000  1.0000
  Ag  Ag1107    1.0  0.10714  0.39286  0.71429  1.0000
  Ag  Ag1108    1.0  0.07143  0.35714  0.78571  1.0000
  Ag  Ag1109    1.0  0.07143  0.39286  0.82143  1.0000
  Ag  Ag1110    1.0  0.10714  0.35714  0.82143  1.0000
  Ag  Ag1111    1.0  0.10714  0.39286  0.78571  1.0000
  Ag  Ag1112    1.0  0.07143  0.35714  0.85714  1.0000
  Ag  Ag1113    1.0  0.07143  0.39286  0.89286  1.0000
  Ag  Ag1114    1.0  0.10714  0.35714  0.89286  1.0000
  Ag  Ag1115    1.0  0.10714  0.39286  0.85714  1.0000
  Ag  Ag1116    1.0  0.07143  0.35714  0.92857  1.0000
  Ag  Ag1117    1.0  0.07143  0.39286  0.96429  1.0000
  Ag  Ag1118    1.0  0.10714  0.35714  0.96429  1.0000
  Ag  Ag1119    1.0  0.10714  0.39286  0.92857  1.0000
  Ag  Ag1120    1.0  0.07143  0.42857  0.00000  1.0000
  Ag  Ag1121    1.0  0.07143  0.46429  0.03571  1.0000
  Ag  Ag1122    1.0  0.10714  0.42857  0.03571  1.0000
  Ag  Ag1123    1.0  0.10714  0.46429  0.00000  1.0000
  Ag  Ag1124    1.0  0.07143  0.42857  0.07143  1.0000
  Ag  Ag1125    1.0  0.07143  0.46429  0.10714  1.0000
  Ag  Ag1126    1.0  0.10714  0.42857  0.10714  1.0000
  Ag  Ag1127    1.0  0.10714  0.46429  0.07143  1.0000
  Ag  Ag1128    1.0  0.07143  0.42857  0.14286  1.0000
  Ag  Ag1129    1.0  0.07143  0.46429  0.17857  1.0000
  Ag  Ag1130    1.0  0.10714  0.42857  0.17857  1.0000
  Ag  Ag1131    1.0  0.10714  0.46429  0.14286  1.0000
  Ag  Ag1132    1.0  0.07143  0.42857  0.21429  1.0000
  Ag  Ag1133    1.0  0.07143  0.46429  0.25000  1.0000
  Ag  Ag1134    1.0  0.10714  0.42857  0.25000  1.0000
  Ag  Ag1135    1.0  0.10714  0.46429  0.21429  1.0000
  Ag  Ag1136    1.0  0.07143  0.42857  0.28571  1.0000
  Ag  Ag1137    1.0  0.07143  0.46429  0.32143  1.0000
  Ag  Ag1138    1.0  0.10714  0.42857  0.32143  1.0000
  Ag  Ag1139    1.0  0.10714  0.46429  0.28571  1.0000
  Ag  Ag1140    1.0  0.07143  0.42857  0.35714  1.0000
  Ag  Ag1141    1.0  0.07143  0.46429  0.39286  1.0000
  Ag  Ag1142    1.0  0.10714  0.42857  0.39286  1.0000
  Ag  Ag1143    1.0  0.10714  0.46429  0.35714  1.0000
  Ag  Ag1144    1.0  0.07143  0.42857  0.42857  1.0000
  Ag  Ag1145    1.0  0.07143  0.46429  0.46429  1.0000
  Ag  Ag1146    1.0  0.10714  0.42857  0.46429  1.0000
  Ag  Ag1147    1.0  0.10714  0.46429  0.42857  1.0000
  Ag  Ag1148    1.0  0.07143  0.42857  0.50000  1.0000
  Ag  Ag1149    1.0  0.07143  0.46429  0.53571  1.0000
  Ag  Ag1150    1.0  0.10714  0.42857  0.53571  1.0000
  Ag  Ag1151    1.0  0.10714  0.46429  0.50000  1.0000
  Ag  Ag1152    1.0  0.07143  0.42857  0.57143  1.0000
  Ag  Ag1153    1.0  0.07143  0.46429  0.60714  1.0000
  Ag  Ag1154    1.0  0.10714  0.42857  0.60714  1.0000
  Ag  Ag1155    1.0  0.10714  0.46429  0.57143  1.0000
  Ag  Ag1156    1.0  0.07143  0.42857  0.64286  1.0000
  Ag  Ag1157    1.0  0.07143  0.46429  0.67857  1.0000
  Ag  Ag1158    1.0  0.10714  0.42857  0.67857  1.0000
  Ag  Ag1159    1.0  0.10714  0.46429  0.64286  1.0000
  Ag  Ag1160    1.0  0.07143  0.42857  0.71429  1.0000
  Ag  Ag1161    1.0  0.07143  0.46429  0.75000  1.0000
  Ag  Ag1162    1.0  0.10714  0.42857  0.75000  1.0000
  Ag  Ag1163    1.0  0.10714  0.46429  0.71429  1.0000
  Ag  Ag1164    1.0  0.07143  0.42857  0.78571  1.0000
  Ag  Ag1165    1.0  0.07143  0.46429  0.82143  1.0000
  Ag  Ag1166    1.0  0.10714  0.42857  0.82143  1.0000
  Ag  Ag1167    1.0  0.10714  0.46429  0.78571  1.0000
  Ag  Ag1168    1.0  0.07143  0.42857  0.85714  1.0000
  Ag  Ag1169    1.0  0.07143  0.46429  0.89286  1.0000
  Ag  Ag1170    1.0  0.10714  0.42857  0.89286  1.0000
  Ag  Ag1171    1.0  0.10714  0.46429  0.85714  1.0000
  Ag  Ag1172    1.0  0.07143  0.42857  0.92857  1.0000
  Ag  Ag1173    1.0  0.07143  0.46429  0.96429  1.0000
  Ag  Ag1174    1.0  0.10714  0.42857  0.96429  1.0000
  Ag  Ag1175    1.0  0.10714  0.46429  0.92857  1.0000
  Ag  Ag1176    1.0  0.07143  0.50000  0.00000  1.0000
  Ag  Ag1177    1.0  0.07143  0.53571  0.03571  1.0000
  Ag  Ag1178    1.0  0.10714  0.50000  0.03571  1.0000
  Ag  Ag1179    1.0  0.10714  0.53571  0.00000  1.0000
  Ag  Ag1180    1.0  0.07143  0.50000  0.07143  1.0000
  Ag  Ag1181    1.0  0.07143  0.53571  0.10714  1.0000
  Ag  Ag1182    1.0  0.10714  0.50000  0.10714  1.0000
  Ag  Ag1183    1.0  0.10714  0.53571  0.07143  1.0000
  Ag  Ag1184    1.0  0.07143  0.50000  0.14286  1.0000
  Ag  Ag1185    1.0  0.07143  0.53571  0.17857  1.0000
  Ag  Ag1186    1.0  0.10714  0.50000  0.17857  1.0000
  Ag  Ag1187    1.0  0.10714  0.53571  0.14286  1.0000
  Ag  Ag1188    1.0  0.07143  0.50000  0.21429  1.0000
  Ag  Ag1189    1.0  0.07143  0.53571  0.25000  1.0000
  Ag  Ag1190    1.0  0.10714  0.50000  0.25000  1.0000
  Ag  Ag1191    1.0  0.10714  0.53571  0.21429  1.0000
  Ag  Ag1192    1.0  0.07143  0.50000  0.28571  1.0000
  Ag  Ag1193    1.0  0.07143  0.53571  0.32143  1.0000
  Ag  Ag1194    1.0  0.10714  0.50000  0.32143  1.0000
  Ag  Ag1195    1.0  0.10714  0.53571  0.28571  1.0000
  Ag  Ag1196    1.0  0.07143  0.50000  0.35714  1.0000
  Ag  Ag1197    1.0  0.07143  0.53571  0.39286  1.0000
  Ag  Ag1198    1.0  0.10714  0.50000  0.39286  1.0000
  Ag  Ag1199    1.0  0.10714  0.53571  0.35714  1.0000
  Ag  Ag1200    1.0  0.07143  0.50000  0.42857  1.0000
  Ag  Ag1201    1.0  0.07143  0.53571  0.46429  1.0000
  Ag  Ag1202    1.0  0.10714  0.50000  0.46429  1.0000
  Ag  Ag1203    1.0  0.10714  0.53571  0.42857  1.0000
  Ag  Ag1204    1.0  0.07143  0.50000  0.50000  1.0000
  Ag  Ag1205    1.0  0.07143  0.53571  0.53571  1.0000
  Ag  Ag1206    1.0  0.10714  0.50000  0.53571  1.0000
  Ag  Ag1207    1.0  0.10714  0.53571  0.50000  1.0000
  Ag  Ag1208    1.0  0.07143  0.50000  0.57143  1.0000
  Ag  Ag1209    1.0  0.07143  0.53571  0.60714  1.0000
  Ag  Ag1210    1.0  0.10714  0.50000  0.60714  1.0000
  Ag  Ag1211    1.0  0.10714  0.53571  0.57143  1.0000
  Ag  Ag1212    1.0  0.07143  0.50000  0.64286  1.0000
  Ag  Ag1213    1.0  0.07143  0.53571  0.67857  1.0000
  Ag  Ag1214    1.0  0.10714  0.50000  0.67857  1.0000
  Ag  Ag1215    1.0  0.10714  0.53571  0.64286  1.0000
  Ag  Ag1216    1.0  0.07143  0.50000  0.71429  1.0000
  Ag  Ag1217    1.0  0.07143  0.53571  0.75000  1.0000
  Ag  Ag1218    1.0  0.10714  0.50000  0.75000  1.0000
  Ag  Ag1219    1.0  0.10714  0.53571  0.71429  1.0000
  Ag  Ag1220    1.0  0.07143  0.50000  0.78571  1.0000
  Ag  Ag1221    1.0  0.07143  0.53571  0.82143  1.0000
  Ag  Ag1222    1.0  0.10714  0.50000  0.82143  1.0000
  Ag  Ag1223    1.0  0.10714  0.53571  0.78571  1.0000
  Ag  Ag1224    1.0  0.07143  0.50000  0.85714  1.0000
  Ag  Ag1225    1.0  0.07143  0.53571  0.89286  1.0000
  Ag  Ag1226    1.0  0.10714  0.50000  0.89286  1.0000
  Ag  Ag1227    1.0  0.10714  0.53571  0.85714  1.0000
  Ag  Ag1228    1.0  0.07143  0.50000  0.92857  1.0000
  Ag  Ag1229    1.0  0.07143  0.53571  0.96429  1.0000
  Ag  Ag1230    1.0  0.10714  0.50000  0.96429  1.0000
  Ag  Ag1231    1.0  0.10714  0.53571  0.92857  1.0000
  Ag  Ag1232    1.0  0.07143  0.57143  0.00000  1.0000
  Ag  Ag1233    1.0  0.07143  0.60714  0.03571  1.0000
  Ag  Ag1234    1.0  0.10714  0.57143  0.03571  1.0000
  Ag  Ag1235    1.0  0.10714  0.60714  0.00000  1.0000
  Ag  Ag1236    1.0  0.07143  0.57143  0.07143  1.0000
  Ag  Ag1237    1.0  0.07143  0.60714  0.10714  1.0000
  Ag  Ag1238    1.0  0.10714  0.57143  0.10714  1.0000
  Ag  Ag1239    1.0  0.10714  0.60714  0.07143  1.0000
  Ag  Ag1240    1.0  0.07143  0.57143  0.14286  1.0000
  Ag  Ag1241    1.0  0.07143  0.60714  0.17857  1.0000
  Ag  Ag1242    1.0  0.10714  0.57143  0.17857  1.0000
  Ag  Ag1243    1.0  0.10714  0.60714  0.14286  1.0000
  Ag  Ag1244    1.0  0.07143  0.57143  0.21429  1.0000
  Ag  Ag1245    1.0  0.07143  0.60714  0.25000  1.0000
  Ag  Ag1246    1.0  0.10714  0.57143  0.25000  1.0000
  Ag  Ag1247    1.0  0.10714  0.60714  0.21429  1.0000
  Ag  Ag1248    1.0  0.07143  0.57143  0.28571  1.0000
  Ag  Ag1249    1.0  0.07143  0.60714  0.32143  1.0000
  Ag  Ag1250    1.0  0.10714  0.57143  0.32143  1.0000
  Ag  Ag1251    1.0  0.10714  0.60714  0.28571  1.0000
  Ag  Ag1252    1.0  0.07143  0.57143  0.35714  1.0000
  Ag  Ag1253    1.0  0.07143  0.60714  0.39286  1.0000
  Ag  Ag1254    1.0  0.10714  0.57143  0.39286  1.0000
  Ag  Ag1255    1.0  0.10714  0.60714  0.35714  1.0000
  Ag  Ag1256    1.0  0.07143  0.57143  0.42857  1.0000
  Ag  Ag1257    1.0  0.07143  0.60714  0.46429  1.0000
  Ag  Ag1258    1.0  0.10714  0.57143  0.46429  1.0000
  Ag  Ag1259    1.0  0.10714  0.60714  0.42857  1.0000
  Ag  Ag1260    1.0  0.07143  0.57143  0.50000  1.0000
  Ag  Ag1261    1.0  0.07143  0.60714  0.53571  1.0000
  Ag  Ag1262    1.0  0.10714  0.57143  0.53571  1.0000
  Ag  Ag1263    1.0  0.10714  0.60714  0.50000  1.0000
  Ag  Ag1264    1.0  0.07143  0.57143  0.57143  1.0000
  Ag  Ag1265    1.0  0.07143  0.60714  0.60714  1.0000
  Ag  Ag1266    1.0  0.10714  0.57143  0.60714  1.0000
  Ag  Ag1267    1.0  0.10714  0.60714  0.57143  1.0000
  Ag  Ag1268    1.0  0.07143  0.57143  0.64286  1.0000
  Ag  Ag1269    1.0  0.07143  0.60714  0.67857  1.0000
  Ag  Ag1270    1.0  0.10714  0.57143  0.67857  1.0000
  Ag  Ag1271    1.0  0.10714  0.60714  0.64286  1.0000
  Ag  Ag1272    1.0  0.07143  0.57143  0.71429  1.0000
  Ag  Ag1273    1.0  0.07143  0.60714  0.75000  1.0000
  Ag  Ag1274    1.0  0.10714  0.57143  0.75000  1.0000
  Ag  Ag1275    1.0  0.10714  0.60714  0.71429  1.0000
  Ag  Ag1276    1.0  0.07143  0.57143  0.78571  1.0000
  Ag  Ag1277    1.0  0.07143  0.60714  0.82143  1.0000
  Ag  Ag1278    1.0  0.10714  0.57143  0.82143  1.0000
  Ag  Ag1279    1.0  0.10714  0.60714  0.78571  1.0000
  Ag  Ag1280    1.0  0.07143  0.57143  0.85714  1.0000
  Ag  Ag1281    1.0  0.07143  0.60714  0.89286  1.0000
  Ag  Ag1282    1.0  0.10714  0.57143  0.89286  1.0000
  Ag  Ag1283    1.0  0.10714  0.60714  0.85714  1.0000
  Ag  Ag1284    1.0  0.07143  0.57143  0.92857  1.0000
  Ag  Ag1285    1.0  0.07143  0.60714  0.96429  1.0000
  Ag  Ag1286    1.0  0.10714  0.57143  0.96429  1.0000
  Ag  Ag1287    1.0  0.10714  0.60714  0.92857  1.0000
  Ag  Ag1288    1.0  0.07143  0.64286  0.00000  1.0000
  Ag  Ag1289    1.0  0.07143  0.67857  0.03571  1.0000
  Ag  Ag1290    1.0  0.10714  0.64286  0.03571  1.0000
  Ag  Ag1291    1.0  0.10714  0.67857  0.00000  1.0000
  Ag  Ag1292    1.0  0.07143  0.64286  0.07143  1.0000
  Ag  Ag1293    1.0  0.07143  0.67857  0.10714  1.0000
  Ag  Ag1294    1.0  0.10714  0.64286  0.10714  1.0000
  Ag  Ag1295    1.0  0.10714  0.67857  0.07143  1.0000
  Ag  Ag1296    1.0  0.07143  0.64286  0.14286  1.0000
  Ag  Ag1297    1.0  0.07143  0.67857  0.17857  1.0000
  Ag  Ag1298    1.0  0.10714  0.64286  0.17857  1.0000
  Ag  Ag1299    1.0  0.10714  0.67857  0.14286  1.0000
  Ag  Ag1300    1.0  0.07143  0.64286  0.21429  1.0000
  Ag  Ag1301    1.0  0.07143  0.67857  0.25000  1.0000
  Ag  Ag1302    1.0  0.10714  0.64286  0.25000  1.0000
  Ag  Ag1303    1.0  0.10714  0.67857  0.21429  1.0000
  Ag  Ag1304    1.0  0.07143  0.64286  0.28571  1.0000
  Ag  Ag1305    1.0  0.07143  0.67857  0.32143  1.0000
  Ag  Ag1306    1.0  0.10714  0.64286  0.32143  1.0000
  Ag  Ag1307    1.0  0.10714  0.67857  0.28571  1.0000
  Ag  Ag1308    1.0  0.07143  0.64286  0.35714  1.0000
  Ag  Ag1309    1.0  0.07143  0.67857  0.39286  1.0000
  Ag  Ag1310    1.0  0.10714  0.64286  0.39286  1.0000
  Ag  Ag1311    1.0  0.10714  0.67857  0.35714  1.0000
  Ag  Ag1312    1.0  0.07143  0.64286  0.42857  1.0000
  Ag  Ag1313    1.0  0.07143  0.67857  0.46429  1.0000
  Ag  Ag1314    1.0  0.10714  0.64286  0.46429  1.0000
  Ag  Ag1315    1.0  0.10714  0.67857  0.42857  1.0000
  Ag  Ag1316    1.0  0.07143  0.64286  0.50000  1.0000
  Ag  Ag1317    1.0  0.07143  0.67857  0.53571  1.0000
  Ag  Ag1318    1.0  0.10714  0.64286  0.53571  1.0000
  Ag  Ag1319    1.0  0.10714  0.67857  0.50000  1.0000
  Ag  Ag1320    1.0  0.07143  0.64286  0.57143  1.0000
  Ag  Ag1321    1.0  0.07143  0.67857  0.60714  1.0000
  Ag  Ag1322    1.0  0.10714  0.64286  0.60714  1.0000
  Ag  Ag1323    1.0  0.10714  0.67857  0.57143  1.0000
  Ag  Ag1324    1.0  0.07143  0.64286  0.64286  1.0000
  Ag  Ag1325    1.0  0.07143  0.67857  0.67857  1.0000
  Ag  Ag1326    1.0  0.10714  0.64286  0.67857  1.0000
  Ag  Ag1327    1.0  0.10714  0.67857  0.64286  1.0000
  Ag  Ag1328    1.0  0.07143  0.64286  0.71429  1.0000
  Ag  Ag1329    1.0  0.07143  0.67857  0.75000  1.0000
  Ag  Ag1330    1.0  0.10714  0.64286  0.75000  1.0000
  Ag  Ag1331    1.0  0.10714  0.67857  0.71429  1.0000
  Ag  Ag1332    1.0  0.07143  0.64286  0.78571  1.0000
  Ag  Ag1333    1.0  0.07143  0.67857  0.82143  1.0000
  Ag  Ag1334    1.0  0.10714  0.64286  0.82143  1.0000
  Ag  Ag1335    1.0  0.10714  0.67857  0.78571  1.0000
  Ag  Ag1336    1.0  0.07143  0.64286  0.85714  1.0000
  Ag  Ag1337    1.0  0.07143  0.67857  0.89286  1.0000
  Ag  Ag1338    1.0  0.10714  0.64286  0.89286  1.0000
  Ag  Ag1339    1.0  0.10714  0.67857  0.85714  1.0000
  Ag  Ag1340    1.0  0.07143  0.64286  0.92857  1.0000
  Ag  Ag1341    1.0  0.07143  0.67857  0.96429  1.0000
  Ag  Ag1342    1.0  0.10714  0.64286  0.96429  1.0000
  Ag  Ag1343    1.0  0.10714  0.67857  0.92857  1.0000
  Ag  Ag1344    1.0  0.07143  0.71429  0.00000  1.0000
  Ag  Ag1345    1.0  0.07143  0.75000  0.03571  1.0000
  Ag  Ag1346    1.0  0.10714  0.71429  0.03571  1.0000
  Ag  Ag1347    1.0  0.10714  0.75000  0.00000  1.0000
  Ag  Ag1348    1.0  0.07143  0.71429  0.07143  1.0000
  Ag  Ag1349    1.0  0.07143  0.75000  0.10714  1.0000
  Ag  Ag1350    1.0  0.10714  0.71429  0.10714  1.0000
  Ag  Ag1351    1.0  0.10714  0.75000  0.07143  1.0000
  Ag  Ag1352    1.0  0.07143  0.71429  0.14286  1.0000
  Ag  Ag1353    1.0  0.07143  0.75000  0.17857  1.0000
  Ag  Ag1354    1.0  0.10714  0.71429  0.17857  1.0000
  Ag  Ag1355    1.0  0.10714  0.75000  0.14286  1.0000
  Ag  Ag1356    1.0  0.07143  0.71429  0.21429  1.0000
  Ag  Ag1357    1.0  0.07143  0.75000  0.25000  1.0000
  Ag  Ag1358    1.0  0.10714  0.71429  0.25000  1.0000
  Ag  Ag1359    1.0  0.10714  0.75000  0.21429  1.0000
  Ag  Ag1360    1.0  0.07143  0.71429  0.28571  1.0000
  Ag  Ag1361    1.0  0.07143  0.75000  0.32143  1.0000
  Ag  Ag1362    1.0  0.10714  0.71429  0.32143  1.0000
  Ag  Ag1363    1.0  0.10714  0.75000  0.28571  1.0000
  Ag  Ag1364    1.0  0.07143  0.71429  0.35714  1.0000
  Ag  Ag1365    1.0  0.07143  0.75000  0.39286  1.0000
  Ag  Ag1366    1.0  0.10714  0.71429  0.39286  1.0000
  Ag  Ag1367    1.0  0.10714  0.75000  0.35714  1.0000
  Ag  Ag1368    1.0  0.07143  0.71429  0.42857  1.0000
  Ag  Ag1369    1.0  0.07143  0.75000  0.46429  1.0000
  Ag  Ag1370    1.0  0.10714  0.71429  0.46429  1.0000
  Ag  Ag1371    1.0  0.10714  0.75000  0.42857  1.0000
  Ag  Ag1372    1.0  0.07143  0.71429  0.50000  1.0000
  Ag  Ag1373    1.0  0.07143  0.75000  0.53571  1.0000
  Ag  Ag1374    1.0  0.10714  0.71429  0.53571  1.0000
  Ag  Ag1375    1.0  0.10714  0.75000  0.50000  1.0000
  Ag  Ag1376    1.0  0.07143  0.71429  0.57143  1.0000
  Ag  Ag1377    1.0  0.07143  0.75000  0.60714  1.0000
  Ag  Ag1378    1.0  0.10714  0.71429  0.60714  1.0000
  Ag  Ag1379    1.0  0.10714  0.75000  0.57143  1.0000
  Ag  Ag1380    1.0  0.07143  0.71429  0.64286  1.0000
  Ag  Ag1381    1.0  0.07143  0.75000  0.67857  1.0000
  Ag  Ag1382    1.0  0.10714  0.71429  0.67857  1.0000
  Ag  Ag1383    1.0  0.10714  0.75000  0.64286  1.0000
  Ag  Ag1384    1.0  0.07143  0.71429  0.71429  1.0000
  Ag  Ag1385    1.0  0.07143  0.75000  0.75000  1.0000
  Ag  Ag1386    1.0  0.10714  0.71429  0.75000  1.0000
  Ag  Ag1387    1.0  0.10714  0.75000  0.71429  1.0000
  Ag  Ag1388    1.0  0.07143  0.71429  0.78571  1.0000
  Ag  Ag1389    1.0  0.07143  0.75000  0.82143  1.0000
  Ag  Ag1390    1.0  0.10714  0.71429  0.82143  1.0000
  Ag  Ag1391    1.0  0.10714  0.75000  0.78571  1.0000
  Ag  Ag1392    1.0  0.07143  0.71429  0.85714  1.0000
  Ag  Ag1393    1.0  0.07143  0.75000  0.89286  1.0000
  Ag  Ag1394    1.0  0.10714  0.71429  0.89286  1.0000
  Ag  Ag1395    1.0  0.10714  0.75000  0.85714  1.0000
  Ag  Ag1396    1.0  0.07143  0.71429  0.92857  1.0000
  Ag  Ag1397    1.0  0.07143  0.75000  0.96429  1.0000
  Ag  Ag1398    1.0  0.10714  0.71429  0.96429  1.0000
  Ag  Ag1399    1.0  0.10714  0.75000  0.92857  1.0000
  Ag  Ag1400    1.0  0.07143  0.78571  0.00000  1.0000
  Ag  Ag1401    1.0  0.07143  0.82143  0.03571  1.0000
  Ag  Ag1402    1.0  0.10714  0.78571  0.03571  1.0000
  Ag  Ag1403    1.0  0.10714  0.82143  0.00000  1.0000
  Ag  Ag1404    1.0  0.07143  0.78571  0.07143  1.0000
  Ag  Ag1405    1.0  0.07143  0.82143  0.10714  1.0000
  Ag  Ag1406    1.0  0.10714  0.78571  0.10714  1.0000
  Ag  Ag1407    1.0  0.10714  0.82143  0.07143  1.0000
  Ag  Ag1408    1.0  0.07143  0.78571  0.14286  1.0000
  Ag  Ag1409    1.0  0.07143  0.82143  0.17857  1.0000
  Ag  Ag1410    1.0  0.10714  0.78571  0.17857  1.0000
  Ag  Ag1411    1.0  0.10714  0.82143  0.14286  1.0000
  Ag  Ag1412    1.0  0.07143  0.78571  0.21429  1.0000
  Ag  Ag1413    1.0  0.07143  0.82143  0.25000  1.0000
  Ag  Ag1414    1.0  0.10714  0.78571  0.25000  1.0000
  Ag  Ag1415    1.0  0.10714  0.82143  0.21429  1.0000
  Ag  Ag1416    1.0  0.07143  0.78571  0.28571  1.0000
  Ag  Ag1417    1.0  0.07143  0.82143  0.32143  1.0000
  Ag  Ag1418    1.0  0.10714  0.78571  0.32143  1.0000
  Ag  Ag1419    1.0  0.10714  0.82143  0.28571  1.0000
  Ag  Ag1420    1.0  0.07143  0.78571  0.35714  1.0000
  Ag  Ag1421    1.0  0.07143  0.82143  0.39286  1.0000
  Ag  Ag1422    1.0  0.10714  0.78571  0.39286  1.0000
  Ag  Ag1423    1.0  0.10714  0.82143  0.35714  1.0000
  Ag  Ag1424    1.0  0.07143  0.78571  0.42857  1.0000
  Ag  Ag1425    1.0  0.07143  0.82143  0.46429  1.0000
  Ag  Ag1426    1.0  0.10714  0.78571  0.46429  1.0000
  Ag  Ag1427    1.0  0.10714  0.82143  0.42857  1.0000
  Ag  Ag1428    1.0  0.07143  0.78571  0.50000  1.0000
  Ag  Ag1429    1.0  0.07143  0.82143  0.53571  1.0000
  Ag  Ag1430    1.0  0.10714  0.78571  0.53571  1.0000
  Ag  Ag1431    1.0  0.10714  0.82143  0.50000  1.0000
  Ag  Ag1432    1.0  0.07143  0.78571  0.57143  1.0000
  Ag  Ag1433    1.0  0.07143  0.82143  0.60714  1.0000
  Ag  Ag1434    1.0  0.10714  0.78571  0.60714  1.0000
  Ag  Ag1435    1.0  0.10714  0.82143  0.57143  1.0000
  Ag  Ag1436    1.0  0.07143  0.78571  0.64286  1.0000
  Ag  Ag1437    1.0  0.07143  0.82143  0.67857  1.0000
  Ag  Ag1438    1.0  0.10714  0.78571  0.67857  1.0000
  Ag  Ag1439    1.0  0.10714  0.82143  0.64286  1.0000
  Ag  Ag1440    1.0  0.07143  0.78571  0.71429  1.0000
  Ag  Ag1441    1.0  0.07143  0.82143  0.75000  1.0000
  Ag  Ag1442    1.0  0.10714  0.78571  0.75000  1.0000
  Ag  Ag1443    1.0  0.10714  0.82143  0.71429  1.0000
  Ag  Ag1444    1.0  0.07143  0.78571  0.78571  1.0000
  Ag  Ag1445    1.0  0.07143  0.82143  0.82143  1.0000
  Ag  Ag1446    1.0  0.10714  0.78571  0.82143  1.0000
  Ag  Ag1447    1.0  0.10714  0.82143  0.78571  1.0000
  Ag  Ag1448    1.0  0.07143  0.78571  0.85714  1.0000
  Ag  Ag1449    1.0  0.07143  0.82143  0.89286  1.0000
  Ag  Ag1450    1.0  0.10714  0.78571  0.89286  1.0000
  Ag  Ag1451    1.0  0.10714  0.82143  0.85714  1.0000
  Ag  Ag1452    1.0  0.07143  0.78571  0.92857  1.0000
  Ag  Ag1453    1.0  0.07143  0.82143  0.96429  1.0000
  Ag  Ag1454    1.0  0.10714  0.78571  0.96429  1.0000
  Ag  Ag1455    1.0  0.10714  0.82143  0.92857  1.0000
  Ag  Ag1456    1.0  0.07143  0.85714  0.00000  1.0000
  Ag  Ag1457    1.0  0.07143  0.89286  0.03571  1.0000
  Ag  Ag1458    1.0  0.10714  0.85714  0.03571  1.0000
  Ag  Ag1459    1.0  0.10714  0.89286  0.00000  1.0000
  Ag  Ag1460    1.0  0.07143  0.85714  0.07143  1.0000
  Ag  Ag1461    1.0  0.07143  0.89286  0.10714  1.0000
  Ag  Ag1462    1.0  0.10714  0.85714  0.10714  1.0000
  Ag  Ag1463    1.0  0.10714  0.89286  0.07143  1.0000
  Ag  Ag1464    1.0  0.07143  0.85714  0.14286  1.0000
  Ag  Ag1465    1.0  0.07143  0.89286  0.17857  1.0000
  Ag  Ag1466    1.0  0.10714  0.85714  0.17857  1.0000
  Ag  Ag1467    1.0  0.10714  0.89286  0.14286  1.0000
  Ag  Ag1468    1.0  0.07143  0.85714  0.21429  1.0000
  Ag  Ag1469    1.0  0.07143  0.89286  0.25000  1.0000
  Ag  Ag1470    1.0  0.10714  0.85714  0.25000  1.0000
  Ag  Ag1471    1.0  0.10714  0.89286  0.21429  1.0000
  Ag  Ag1472    1.0  0.07143  0.85714  0.28571  1.0000
  Ag  Ag1473    1.0  0.07143  0.89286  0.32143  1.0000
  Ag  Ag1474    1.0  0.10714  0.85714  0.32143  1.0000
  Ag  Ag1475    1.0  0.10714  0.89286  0.28571  1.0000
  Ag  Ag1476    1.0  0.07143  0.85714  0.35714  1.0000
  Ag  Ag1477    1.0  0.07143  0.89286  0.39286  1.0000
  Ag  Ag1478    1.0  0.10714  0.85714  0.39286  1.0000
  Ag  Ag1479    1.0  0.10714  0.89286  0.35714  1.0000
  Ag  Ag1480    1.0  0.07143  0.85714  0.42857  1.0000
  Ag  Ag1481    1.0  0.07143  0.89286  0.46429  1.0000
  Ag  Ag1482    1.0  0.10714  0.85714  0.46429  1.0000
  Ag  Ag1483    1.0  0.10714  0.89286  0.42857  1.0000
  Ag  Ag1484    1.0  0.07143  0.85714  0.50000  1.0000
  Ag  Ag1485    1.0  0.07143  0.89286  0.53571  1.0000
  Ag  Ag1486    1.0  0.10714  0.85714  0.53571  1.0000
  Ag  Ag1487    1.0  0.10714  0.89286  0.50000  1.0000
  Ag  Ag1488    1.0  0.07143  0.85714  0.57143  1.0000
  Ag  Ag1489    1.0  0.07143  0.89286  0.60714  1.0000
  Ag  Ag1490    1.0  0.10714  0.85714  0.60714  1.0000
  Ag  Ag1491    1.0  0.10714  0.89286  0.57143  1.0000
  Ag  Ag1492    1.0  0.07143  0.85714  0.64286  1.0000
  Ag  Ag1493    1.0  0.07143  0.89286  0.67857  1.0000
  Ag  Ag1494    1.0  0.10714  0.85714  0.67857  1.0000
  Ag  Ag1495    1.0  0.10714  0.89286  0.64286  1.0000
  Ag  Ag1496    1.0  0.07143  0.85714  0.71429  1.0000
  Ag  Ag1497    1.0  0.07143  0.89286  0.75000  1.0000
  Ag  Ag1498    1.0  0.10714  0.85714  0.75000  1.0000
  Ag  Ag1499    1.0  0.10714  0.89286  0.71429  1.0000
  Ag  Ag1500    1.0  0.07143  0.85714  0.78571  1.0000
  Ag  Ag1501    1.0  0.07143  0.89286  0.82143  1.0000
  Ag  Ag1502    1.0  0.10714  0.85714  0.82143  1.0000
  Ag  Ag1503    1.0  0.10714  0.89286  0.78571  1.0000
  Ag  Ag1504    1.0  0.07143  0.85714  0.85714  1.0000
  Ag  Ag1505    1.0  0.07143  0.89286  0.89286  1.0000
  Ag  Ag1506    1.0  0.10714  0.85714  0.89286  1.0000
  Ag  Ag1507    1.0  0.10714  0.89286  0.85714  1.0000
  Ag  Ag1508    1.0  0.07143  0.85714  0.92857  1.0000
  Ag  Ag1509    1.0  0.07143  0.89286  0.96429  1.0000
  Ag  Ag1510    1.0  0.10714  0.85714  0.96429  1.0000
  Ag  Ag1511    1.0  0.10714  0.89286  0.92857  1.0000
  Ag  Ag1512    1.0  0.07143  0.92857  0.00000  1.0000
  Ag  Ag1513    1.0  0.07143  0.96429  0.03571  1.0000
  Ag  Ag1514    1.0  0.10714  0.92857  0.03571  1.0000
  Ag  Ag1515    1.0  0.10714  0.96429  0.00000  1.0000
  Ag  Ag1516    1.0  0.07143  0.92857  0.07143  1.0000
  Ag  Ag1517    1.0  0.07143  0.96429  0.10714  1.0000
  Ag  Ag1518    1.0  0.10714  0.92857  0.10714  1.0000
  Ag  Ag1519    1.0  0.10714  0.96429  0.07143  1.0000
  Ag  Ag1520    1.0  0.07143  0.92857  0.14286  1.0000
  Ag  Ag1521    1.0  0.07143  0.96429  0.17857  1.0000
  Ag  Ag1522    1.0  0.10714  0.92857  0.17857  1.0000
  Ag  Ag1523    1.0  0.10714  0.96429  0.14286  1.0000
  Ag  Ag1524    1.0  0.07143  0.92857  0.21429  1.0000
  Ag  Ag1525    1.0  0.07143  0.96429  0.25000  1.0000
  Ag  Ag1526    1.0  0.10714  0.92857  0.25000  1.0000
  Ag  Ag1527    1.0  0.10714  0.96429  0.21429  1.0000
  Ag  Ag1528    1.0  0.07143  0.92857  0.28571  1.0000
  Ag  Ag1529    1.0  0.07143  0.96429  0.32143  1.0000
  Ag  Ag1530    1.0  0.10714  0.92857  0.32143  1.0000
  Ag  Ag1531    1.0  0.10714  0.96429  0.28571  1.0000
  Ag  Ag1532    1.0  0.07143  0.92857  0.35714  1.0000
  Ag  Ag1533    1.0  0.07143  0.96429  0.39286  1.0000
  Ag  Ag1534    1.0  0.10714  0.92857  0.39286  1.0000
  Ag  Ag1535    1.0  0.10714  0.96429  0.35714  1.0000
  Ag  Ag1536    1.0  0.07143  0.92857  0.42857  1.0000
  Ag  Ag1537    1.0  0.07143  0.96429  0.46429  1.0000
  Ag  Ag1538    1.0  0.10714  0.92857  0.46429  1.0000
  Ag  Ag1539    1.0  0.10714  0.96429  0.42857  1.0000
  Ag  Ag1540    1.0  0.07143  0.92857  0.50000  1.0000
  Ag  Ag1541    1.0  0.07143  0.96429  0.53571  1.0000
  Ag  Ag1542    1.0  0.10714  0.92857  0.53571  1.0000
  Ag  Ag1543    1.0  0.10714  0.96429  0.50000  1.0000
  Ag  Ag1544    1.0  0.07143  0.92857  0.57143  1.0000
  Ag  Ag1545    1.0  0.07143  0.96429  0.60714  1.0000
  Ag  Ag1546    1.0  0.10714  0.92857  0.60714  1.0000
  Ag  Ag1547    1.0  0.10714  0.96429  0.57143  1.0000
  Ag  Ag1548    1.0  0.07143  0.92857  0.64286  1.0000
  Ag  Ag1549    1.0  0.07143  0.96429  0.67857  1.0000
  Ag  Ag1550    1.0  0.10714  0.92857  0.67857  1.0000
  Ag  Ag1551    1.0  0.10714  0.96429  0.64286  1.0000
  Ag  Ag1552    1.0  0.07143  0.92857  0.71429  1.0000
  Ag  Ag1553    1.0  0.07143  0.96429  0.75000  1.0000
  Ag  Ag1554    1.0  0.10714  0.92857  0.75000  1.0000
  Ag  Ag1555    1.0  0.10714  0.96429  0.71429  1.0000
  Ag  Ag1556    1.0  0.07143  0.92857  0.78571  1.0000
  Ag  Ag1557    1.0  0.07143  0.96429  0.82143  1.0000
  Ag  Ag1558    1.0  0.10714  0.92857  0.82143  1.0000
  Ag  Ag1559    1.0  0.10714  0.96429  0.78571  1.0000
  Ag  Ag1560    1.0  0.07143  0.92857  0.85714  1.0000
  Ag  Ag1561    1.0  0.07143  0.96429  0.89286  1.0000
  Ag  Ag1562    1.0  0.10714  0.92857  0.89286  1.0000
  Ag  Ag1563    1.0  0.10714  0.96429  0.85714  1.0000
  Ag  Ag1564    1.0  0.07143  0.92857  0.92857  1.0000
  Ag  Ag1565    1.0  0.07143  0.96429  0.96429  1.0000
  Ag  Ag1566    1.0  0.10714  0.92857  0.96429  1.0000
  Ag  Ag1567    1.0  0.10714  0.96429  0.92857  1.0000
  Ag  Ag1568    1.0  0.14286  0.00000  0.00000  1.0000
  Ag  Ag1569    1.0  0.14286  0.03571  0.03571  1.0000
  Ag  Ag1570    1.0  0.17857  0.00000  0.03571  1.0000
  Ag  Ag1571    1.0  0.17857  0.03571  0.00000  1.0000
  Ag  Ag1572    1.0  0.14286  0.00000  0.07143  1.0000
  Ag  Ag1573    1.0  0.14286  0.03571  0.10714  1.0000
  Ag  Ag1574    1.0  0.17857  0.00000  0.10714  1.0000
  Ag  Ag1575    1.0  0.17857  0.03571  0.07143  1.0000
  Ag  Ag1576    1.0  0.14286  0.00000  0.14286  1.0000
  Ag  Ag1577    1.0  0.14286  0.03571  0.17857  1.0000
  Ag  Ag1578    1.0  0.17857  0.00000  0.17857  1.0000
  Ag  Ag1579    1.0  0.17857  0.03571  0.14286  1.0000
  Ag  Ag1580    1.0  0.14286  0.00000  0.21429  1.0000
  Ag  Ag1581    1.0  0.14286  0.03571  0.25000  1.0000
  Ag  Ag1582    1.0  0.17857  0.00000  0.25000  1.0000
  Ag  Ag1583    1.0  0.17857  0.03571  0.21429  1.0000
  Ag  Ag1584    1.0  0.14286  0.00000  0.28571  1.0000
  Ag  Ag1585    1.0  0.14286  0.03571  0.32143  1.0000
  Ag  Ag1586    1.0  0.17857  0.00000  0.32143  1.0000
  Ag  Ag1587    1.0  0.17857  0.03571  0.28571  1.0000
  Ag  Ag1588    1.0  0.14286  0.00000  0.35714  1.0000
  Ag  Ag1589    1.0  0.14286  0.03571  0.39286  1.0000
  Ag  Ag1590    1.0  0.17857  0.00000  0.39286  1.0000
  Ag  Ag1591    1.0  0.17857  0.03571  0.35714  1.0000
  Ag  Ag1592    1.0  0.14286  0.00000  0.42857  1.0000
  Ag  Ag1593    1.0  0.14286  0.03571  0.46429  1.0000
  Ag  Ag1594    1.0  0.17857  0.00000  0.46429  1.0000
  Ag  Ag1595    1.0  0.17857  0.03571  0.42857  1.0000
  Ag  Ag1596    1.0  0.14286  0.00000  0.50000  1.0000
  Ag  Ag1597    1.0  0.14286  0.03571  0.53571  1.0000
  Ag  Ag1598    1.0  0.17857  0.00000  0.53571  1.0000
  Ag  Ag1599    1.0  0.17857  0.03571  0.50000  1.0000
  Ag  Ag1600    1.0  0.14286  0.00000  0.57143  1.0000
  Ag  Ag1601    1.0  0.14286  0.03571  0.60714  1.0000
  Ag  Ag1602    1.0  0.17857  0.00000  0.60714  1.0000
  Ag  Ag1603    1.0  0.17857  0.03571  0.57143  1.0000
  Ag  Ag1604    1.0  0.14286  0.00000  0.64286  1.0000
  Ag  Ag1605    1.0  0.14286  0.03571  0.67857  1.0000
  Ag  Ag1606    1.0  0.17857  0.00000  0.67857  1.0000
  Ag  Ag1607    1.0  0.17857  0.03571  0.64286  1.0000
  Ag  Ag1608    1.0  0.14286  0.00000  0.71429  1.0000
  Ag  Ag1609    1.0  0.14286  0.03571  0.75000  1.0000
  Ag  Ag1610    1.0  0.17857  0.00000  0.75000  1.0000
  Ag  Ag1611    1.0  0.17857  0.03571  0.71429  1.0000
  Ag  Ag1612    1.0  0.14286  0.00000  0.78571  1.0000
  Ag  Ag1613    1.0  0.14286  0.03571  0.82143  1.0000
  Ag  Ag1614    1.0  0.17857  0.00000  0.82143  1.0000
  Ag  Ag1615    1.0  0.17857  0.03571  0.78571  1.0000
  Ag  Ag1616    1.0  0.14286  0.00000  0.85714  1.0000
  Ag  Ag1617    1.0  0.14286  0.03571  0.89286  1.0000
  Ag  Ag1618    1.0  0.17857  0.00000  0.89286  1.0000
  Ag  Ag1619    1.0  0.17857  0.03571  0.85714  1.0000
  Ag  Ag1620    1.0  0.14286  0.00000  0.92857  1.0000
  Ag  Ag1621    1.0  0.14286  0.03571  0.96429  1.0000
  Ag  Ag1622    1.0  0.17857  0.00000  0.96429  1.0000
  Ag  Ag1623    1.0  0.17857  0.03571  0.92857  1.0000
  Ag  Ag1624    1.0  0.14286  0.07143  0.00000  1.0000
  Ag  Ag1625    1.0  0.14286  0.10714  0.03571  1.0000
  Ag  Ag1626    1.0  0.17857  0.07143  0.03571  1.0000
  Ag  Ag1627    1.0  0.17857  0.10714  0.00000  1.0000
  Ag  Ag1628    1.0  0.14286  0.07143  0.07143  1.0000
  Ag  Ag1629    1.0  0.14286  0.10714  0.10714  1.0000
  Ag  Ag1630    1.0  0.17857  0.07143  0.10714  1.0000
  Ag  Ag1631    1.0  0.17857  0.10714  0.07143  1.0000
  Ag  Ag1632    1.0  0.14286  0.07143  0.14286  1.0000
  Ag  Ag1633    1.0  0.14286  0.10714  0.17857  1.0000
  Ag  Ag1634    1.0  0.17857  0.07143  0.17857  1.0000
  Ag  Ag1635    1.0  0.17857  0.10714  0.14286  1.0000
  Ag  Ag1636    1.0  0.14286  0.07143  0.21429  1.0000
  Ag  Ag1637    1.0  0.14286  0.10714  0.25000  1.0000
  Ag  Ag1638    1.0  0.17857  0.07143  0.25000  1.0000
  Ag  Ag1639    1.0  0.17857  0.10714  0.21429  1.0000
  Ag  Ag1640    1.0  0.14286  0.07143  0.28571  1.0000
  Ag  Ag1641    1.0  0.14286  0.10714  0.32143  1.0000
  Ag  Ag1642    1.0  0.17857  0.07143  0.32143  1.0000
  Ag  Ag1643    1.0  0.17857  0.10714  0.28571  1.0000
  Ag  Ag1644    1.0  0.14286  0.07143  0.35714  1.0000
  Ag  Ag1645    1.0  0.14286  0.10714  0.39286  1.0000
  Ag  Ag1646    1.0  0.17857  0.07143  0.39286  1.0000
  Ag  Ag1647    1.0  0.17857  0.10714  0.35714  1.0000
  Ag  Ag1648    1.0  0.14286  0.07143  0.42857  1.0000
  Ag  Ag1649    1.0  0.14286  0.10714  0.46429  1.0000
  Ag  Ag1650    1.0  0.17857  0.07143  0.46429  1.0000
  Ag  Ag1651    1.0  0.17857  0.10714  0.42857  1.0000
  Ag  Ag1652    1.0  0.14286  0.07143  0.50000  1.0000
  Ag  Ag1653    1.0  0.14286  0.10714  0.53571  1.0000
  Ag  Ag1654    1.0  0.17857  0.07143  0.53571  1.0000
  Ag  Ag1655    1.0  0.17857  0.10714  0.50000  1.0000
  Ag  Ag1656    1.0  0.14286  0.07143  0.57143  1.0000
  Ag  Ag1657    1.0  0.14286  0.10714  0.60714  1.0000
  Ag  Ag1658    1.0  0.17857  0.07143  0.60714  1.0000
  Ag  Ag1659    1.0  0.17857  0.10714  0.57143  1.0000
  Ag  Ag1660    1.0  0.14286  0.07143  0.64286  1.0000
  Ag  Ag1661    1.0  0.14286  0.10714  0.67857  1.0000
  Ag  Ag1662    1.0  0.17857  0.07143  0.67857  1.0000
  Ag  Ag1663    1.0  0.17857  0.10714  0.64286  1.0000
  Ag  Ag1664    1.0  0.14286  0.07143  0.71429  1.0000
  Ag  Ag1665    1.0  0.14286  0.10714  0.75000  1.0000
  Ag  Ag1666    1.0  0.17857  0.07143  0.75000  1.0000
  Ag  Ag1667    1.0  0.17857  0.10714  0.71429  1.0000
  Ag  Ag1668    1.0  0.14286  0.07143  0.78571  1.0000
  Ag  Ag1669    1.0  0.14286  0.10714  0.82143  1.0000
  Ag  Ag1670    1.0  0.17857  0.07143  0.82143  1.0000
  Ag  Ag1671    1.0  0.17857  0.10714  0.78571  1.0000
  Ag  Ag1672    1.0  0.14286  0.07143  0.85714  1.0000
  Ag  Ag1673    1.0  0.14286  0.10714  0.89286  1.0000
  Ag  Ag1674    1.0  0.17857  0.07143  0.89286  1.0000
  Ag  Ag1675    1.0  0.17857  0.10714  0.85714  1.0000
  Ag  Ag1676    1.0  0.14286  0.07143  0.92857  1.0000
  Ag  Ag1677    1.0  0.14286  0.10714  0.96429  1.0000
  Ag  Ag1678    1.0  0.17857  0.07143  0.96429  1.0000
  Ag  Ag1679    1.0  0.17857  0.10714  0.92857  1.0000
  Ag  Ag1680    1.0  0.14286  0.14286  0.00000  1.0000
  Ag  Ag1681    1.0  0.14286  0.17857  0.03571  1.0000
  Ag  Ag1682    1.0  0.17857  0.14286  0.03571  1.0000
  Ag  Ag1683    1.0  0.17857  0.17857  0.00000  1.0000
  Ag  Ag1684    1.0  0.14286  0.14286  0.07143  1.0000
  Ag  Ag1685    1.0  0.14286  0.17857  0.10714  1.0000
  Ag  Ag1686    1.0  0.17857  0.14286  0.10714  1.0000
  Ag  Ag1687    1.0  0.17857  0.17857  0.07143  1.0000
  Ag  Ag1688    1.0  0.14286  0.14286  0.14286  1.0000
  Ag  Ag1689    1.0  0.14286  0.17857  0.17857  1.0000
  Ag  Ag1690    1.0  0.17857  0.14286  0.17857  1.0000
  Ag  Ag1691    1.0  0.17857  0.17857  0.14286  1.0000
  Ag  Ag1692    1.0  0.14286  0.14286  0.21429  1.0000
  Ag  Ag1693    1.0  0.14286  0.17857  0.25000  1.0000
  Ag  Ag1694    1.0  0.17857  0.14286  0.25000  1.0000
  Ag  Ag1695    1.0  0.17857  0.17857  0.21429  1.0000
  Ag  Ag1696    1.0  0.14286  0.14286  0.28571  1.0000
  Ag  Ag1697    1.0  0.14286  0.17857  0.32143  1.0000
  Ag  Ag1698    1.0  0.17857  0.14286  0.32143  1.0000
  Ag  Ag1699    1.0  0.17857  0.17857  0.28571  1.0000
  Ag  Ag1700    1.0  0.14286  0.14286  0.35714  1.0000
  Ag  Ag1701    1.0  0.14286  0.17857  0.39286  1.0000
  Ag  Ag1702    1.0  0.17857  0.14286  0.39286  1.0000
  Ag  Ag1703    1.0  0.17857  0.17857  0.35714  1.0000
  Ag  Ag1704    1.0  0.14286  0.14286  0.42857  1.0000
  Ag  Ag1705    1.0  0.14286  0.17857  0.46429  1.0000
  Ag  Ag1706    1.0  0.17857  0.14286  0.46429  1.0000
  Ag  Ag1707    1.0  0.17857  0.17857  0.42857  1.0000
  Ag  Ag1708    1.0  0.14286  0.14286  0.50000  1.0000
  Ag  Ag1709    1.0  0.14286  0.17857  0.53571  1.0000
  Ag  Ag1710    1.0  0.17857  0.14286  0.53571  1.0000
  Ag  Ag1711    1.0  0.17857  0.17857  0.50000  1.0000
  Ag  Ag1712    1.0  0.14286  0.14286  0.57143  1.0000
  Ag  Ag1713    1.0  0.14286  0.17857  0.60714  1.0000
  Ag  Ag1714    1.0  0.17857  0.14286  0.60714  1.0000
  Ag  Ag1715    1.0  0.17857  0.17857  0.57143  1.0000
  Ag  Ag1716    1.0  0.14286  0.14286  0.64286  1.0000
  Ag  Ag1717    1.0  0.14286  0.17857  0.67857  1.0000
  Ag  Ag1718    1.0  0.17857  0.14286  0.67857  1.0000
  Ag  Ag1719    1.0  0.17857  0.17857  0.64286  1.0000
  Ag  Ag1720    1.0  0.14286  0.14286  0.71429  1.0000
  Ag  Ag1721    1.0  0.14286  0.17857  0.75000  1.0000
  Ag  Ag1722    1.0  0.17857  0.14286  0.75000  1.0000
  Ag  Ag1723    1.0  0.17857  0.17857  0.71429  1.0000
  Ag  Ag1724    1.0  0.14286  0.14286  0.78571  1.0000
  Ag  Ag1725    1.0  0.14286  0.17857  0.82143  1.0000
  Ag  Ag1726    1.0  0.17857  0.14286  0.82143  1.0000
  Ag  Ag1727    1.0  0.17857  0.17857  0.78571  1.0000
  Ag  Ag1728    1.0  0.14286  0.14286  0.85714  1.0000
  Ag  Ag1729    1.0  0.14286  0.17857  0.89286  1.0000
  Ag  Ag1730    1.0  0.17857  0.14286  0.89286  1.0000
  Ag  Ag1731    1.0  0.17857  0.17857  0.85714  1.0000
  Ag  Ag1732    1.0  0.14286  0.14286  0.92857  1.0000
  Ag  Ag1733    1.0  0.14286  0.17857  0.96429  1.0000
  Ag  Ag1734    1.0  0.17857  0.14286  0.96429  1.0000
  Ag  Ag1735    1.0  0.17857  0.17857  0.92857  1.0000
  Ag  Ag1736    1.0  0.14286  0.21429  0.00000  1.0000
  Ag  Ag1737    1.0  0.14286  0.25000  0.03571  1.0000
  Ag  Ag1738    1.0  0.17857  0.21429  0.03571  1.0000
  Ag  Ag1739    1.0  0.17857  0.25000  0.00000  1.0000
  Ag  Ag1740    1.0  0.14286  0.21429  0.07143  1.0000
  Ag  Ag1741    1.0  0.14286  0.25000  0.10714  1.0000
  Ag  Ag1742    1.0  0.17857  0.21429  0.10714  1.0000
  Ag  Ag1743    1.0  0.17857  0.25000  0.07143  1.0000
  Ag  Ag1744    1.0  0.14286  0.21429  0.14286  1.0000
  Ag  Ag1745    1.0  0.14286  0.25000  0.17857  1.0000
  Ag  Ag1746    1.0  0.17857  0.21429  0.17857  1.0000
  Ag  Ag1747    1.0  0.17857  0.25000  0.14286  1.0000
  Ag  Ag1748    1.0  0.14286  0.21429  0.21429  1.0000
  Ag  Ag1749    1.0  0.14286  0.25000  0.25000  1.0000
  Ag  Ag1750    1.0  0.17857  0.21429  0.25000  1.0000
  Ag  Ag1751    1.0  0.17857  0.25000  0.21429  1.0000
  Ag  Ag1752    1.0  0.14286  0.21429  0.28571  1.0000
  Ag  Ag1753    1.0  0.14286  0.25000  0.32143  1.0000
  Ag  Ag1754    1.0  0.17857  0.21429  0.32143  1.0000
  Ag  Ag1755    1.0  0.17857  0.25000  0.28571  1.0000
  Ag  Ag1756    1.0  0.14286  0.21429  0.35714  1.0000
  Ag  Ag1757    1.0  0.14286  0.25000  0.39286  1.0000
  Ag  Ag1758    1.0  0.17857  0.21429  0.39286  1.0000
  Ag  Ag1759    1.0  0.17857  0.25000  0.35714  1.0000
  Ag  Ag1760    1.0  0.14286  0.21429  0.42857  1.0000
  Ag  Ag1761    1.0  0.14286  0.25000  0.46429  1.0000
  Ag  Ag1762    1.0  0.17857  0.21429  0.46429  1.0000
  Ag  Ag1763    1.0  0.17857  0.25000  0.42857  1.0000
  Ag  Ag1764    1.0  0.14286  0.21429  0.50000  1.0000
  Ag  Ag1765    1.0  0.14286  0.25000  0.53571  1.0000
  Ag  Ag1766    1.0  0.17857  0.21429  0.53571  1.0000
  Ag  Ag1767    1.0  0.17857  0.25000  0.50000  1.0000
  Ag  Ag1768    1.0  0.14286  0.21429  0.57143  1.0000
  Ag  Ag1769    1.0  0.14286  0.25000  0.60714  1.0000
  Ag  Ag1770    1.0  0.17857  0.21429  0.60714  1.0000
  Ag  Ag1771    1.0  0.17857  0.25000  0.57143  1.0000
  Ag  Ag1772    1.0  0.14286  0.21429  0.64286  1.0000
  Ag  Ag1773    1.0  0.14286  0.25000  0.67857  1.0000
  Ag  Ag1774    1.0  0.17857  0.21429  0.67857  1.0000
  Ag  Ag1775    1.0  0.17857  0.25000  0.64286  1.0000
  Ag  Ag1776    1.0  0.14286  0.21429  0.71429  1.0000
  Ag  Ag1777    1.0  0.14286  0.25000  0.75000  1.0000
  Ag  Ag1778    1.0  0.17857  0.21429  0.75000  1.0000
  Ag  Ag1779    1.0  0.17857  0.25000  0.71429  1.0000
  Ag  Ag1780    1.0  0.14286  0.21429  0.78571  1.0000
  Ag  Ag1781    1.0  0.14286  0.25000  0.82143  1.0000
  Ag  Ag1782    1.0  0.17857  0.21429  0.82143  1.0000
  Ag  Ag1783    1.0  0.17857  0.25000  0.78571  1.0000
  Ag  Ag1784    1.0  0.14286  0.21429  0.85714  1.0000
  Ag  Ag1785    1.0  0.14286  0.25000  0.89286  1.0000
  Ag  Ag1786    1.0  0.17857  0.21429  0.89286  1.0000
  Ag  Ag1787    1.0  0.17857  0.25000  0.85714  1.0000
  Ag  Ag1788    1.0  0.14286  0.21429  0.92857  1.0000
  Ag  Ag1789    1.0  0.14286  0.25000  0.96429  1.0000
  Ag  Ag1790    1.0  0.17857  0.21429  0.96429  1.0000
  Ag  Ag1791    1.0  0.17857  0.25000  0.92857  1.0000
  Ag  Ag1792    1.0  0.14286  0.28571  0.00000  1.0000
  Ag  Ag1793    1.0  0.14286  0.32143  0.03571  1.0000
  Ag  Ag1794    1.0  0.17857  0.28571  0.03571  1.0000
  Ag  Ag1795    1.0  0.17857  0.32143  0.00000  1.0000
  Ag  Ag1796    1.0  0.14286  0.28571  0.07143  1.0000
  Ag  Ag1797    1.0  0.14286  0.32143  0.10714  1.0000
  Ag  Ag1798    1.0  0.17857  0.28571  0.10714  1.0000
  Ag  Ag1799    1.0  0.17857  0.32143  0.07143  1.0000
  Ag  Ag1800    1.0  0.14286  0.28571  0.14286  1.0000
  Ag  Ag1801    1.0  0.14286  0.32143  0.17857  1.0000
  Ag  Ag1802    1.0  0.17857  0.28571  0.17857  1.0000
  Ag  Ag1803    1.0  0.17857  0.32143  0.14286  1.0000
  Ag  Ag1804    1.0  0.14286  0.28571  0.21429  1.0000
  Ag  Ag1805    1.0  0.14286  0.32143  0.25000  1.0000
  Ag  Ag1806    1.0  0.17857  0.28571  0.25000  1.0000
  Ag  Ag1807    1.0  0.17857  0.32143  0.21429  1.0000
  Ag  Ag1808    1.0  0.14286  0.28571  0.28571  1.0000
  Ag  Ag1809    1.0  0.14286  0.32143  0.32143  1.0000
  Ag  Ag1810    1.0  0.17857  0.28571  0.32143  1.0000
  Ag  Ag1811    1.0  0.17857  0.32143  0.28571  1.0000
  Ag  Ag1812    1.0  0.14286  0.28571  0.35714  1.0000
  Ag  Ag1813    1.0  0.14286  0.32143  0.39286  1.0000
  Ag  Ag1814    1.0  0.17857  0.28571  0.39286  1.0000
  Ag  Ag1815    1.0  0.17857  0.32143  0.35714  1.0000
  Ag  Ag1816    1.0  0.14286  0.28571  0.42857  1.0000
  Ag  Ag1817    1.0  0.14286  0.32143  0.46429  1.0000
  Ag  Ag1818    1.0  0.17857  0.28571  0.46429  1.0000
  Ag  Ag1819    1.0  0.17857  0.32143  0.42857  1.0000
  Ag  Ag1820    1.0  0.14286  0.28571  0.50000  1.0000
  Ag  Ag1821    1.0  0.14286  0.32143  0.53571  1.0000
  Ag  Ag1822    1.0  0.17857  0.28571  0.53571  1.0000
  Ag  Ag1823    1.0  0.17857  0.32143  0.50000  1.0000
  Ag  Ag1824    1.0  0.14286  0.28571  0.57143  1.0000
  Ag  Ag1825    1.0  0.14286  0.32143  0.60714  1.0000
  Ag  Ag1826    1.0  0.17857  0.28571  0.60714  1.0000
  Ag  Ag1827    1.0  0.17857  0.32143  0.57143  1.0000
  Ag  Ag1828    1.0  0.14286  0.28571  0.64286  1.0000
  Ag  Ag1829    1.0  0.14286  0.32143  0.67857  1.0000
  Ag  Ag1830    1.0  0.17857  0.28571  0.67857  1.0000
  Ag  Ag1831    1.0  0.17857  0.32143  0.64286  1.0000
  Ag  Ag1832    1.0  0.14286  0.28571  0.71429  1.0000
  Ag  Ag1833    1.0  0.14286  0.32143  0.75000  1.0000
  Ag  Ag1834    1.0  0.17857  0.28571  0.75000  1.0000
  Ag  Ag1835    1.0  0.17857  0.32143  0.71429  1.0000
  Ag  Ag1836    1.0  0.14286  0.28571  0.78571  1.0000
  Ag  Ag1837    1.0  0.14286  0.32143  0.82143  1.0000
  Ag  Ag1838    1.0  0.17857  0.28571  0.82143  1.0000
  Ag  Ag1839    1.0  0.17857  0.32143  0.78571  1.0000
  Ag  Ag1840    1.0  0.14286  0.28571  0.85714  1.0000
  Ag  Ag1841    1.0  0.14286  0.32143  0.89286  1.0000
  Ag  Ag1842    1.0  0.17857  0.28571  0.89286  1.0000
  Ag  Ag1843    1.0  0.17857  0.32143  0.85714  1.0000
  Ag  Ag1844    1.0  0.14286  0.28571  0.92857  1.0000
  Ag  Ag1845    1.0  0.14286  0.32143  0.96429  1.0000
  Ag  Ag1846    1.0  0.17857  0.28571  0.96429  1.0000
  Ag  Ag1847    1.0  0.17857  0.32143  0.92857  1.0000
  Ag  Ag1848    1.0  0.14286  0.35714  0.00000  1.0000
  Ag  Ag1849    1.0  0.14286  0.39286  0.03571  1.0000
  Ag  Ag1850    1.0  0.17857  0.35714  0.03571  1.0000
  Ag  Ag1851    1.0  0.17857  0.39286  0.00000  1.0000
  Ag  Ag1852    1.0  0.14286  0.35714  0.07143  1.0000
  Ag  Ag1853    1.0  0.14286  0.39286  0.10714  1.0000
  Ag  Ag1854    1.0  0.17857  0.35714  0.10714  1.0000
  Ag  Ag1855    1.0  0.17857  0.39286  0.07143  1.0000
  Ag  Ag1856    1.0  0.14286  0.35714  0.14286  1.0000
  Ag  Ag1857    1.0  0.14286  0.39286  0.17857  1.0000
  Ag  Ag1858    1.0  0.17857  0.35714  0.17857  1.0000
  Ag  Ag1859    1.0  0.17857  0.39286  0.14286  1.0000
  Ag  Ag1860    1.0  0.14286  0.35714  0.21429  1.0000
  Ag  Ag1861    1.0  0.14286  0.39286  0.25000  1.0000
  Ag  Ag1862    1.0  0.17857  0.35714  0.25000  1.0000
  Ag  Ag1863    1.0  0.17857  0.39286  0.21429  1.0000
  Ag  Ag1864    1.0  0.14286  0.35714  0.28571  1.0000
  Ag  Ag1865    1.0  0.14286  0.39286  0.32143  1.0000
  Ag  Ag1866    1.0  0.17857  0.35714  0.32143  1.0000
  Ag  Ag1867    1.0  0.17857  0.39286  0.28571  1.0000
  Ag  Ag1868    1.0  0.14286  0.35714  0.35714  1.0000
  Ag  Ag1869    1.0  0.14286  0.39286  0.39286  1.0000
  Ag  Ag1870    1.0  0.17857  0.35714  0.39286  1.0000
  Ag  Ag1871    1.0  0.17857  0.39286  0.35714  1.0000
  Ag  Ag1872    1.0  0.14286  0.35714  0.42857  1.0000
  Ag  Ag1873    1.0  0.14286  0.39286  0.46429  1.0000
  Ag  Ag1874    1.0  0.17857  0.35714  0.46429  1.0000
  Ag  Ag1875    1.0  0.17857  0.39286  0.42857  1.0000
  Ag  Ag1876    1.0  0.14286  0.35714  0.50000  1.0000
  Ag  Ag1877    1.0  0.14286  0.39286  0.53571  1.0000
  Ag  Ag1878    1.0  0.17857  0.35714  0.53571  1.0000
  Ag  Ag1879    1.0  0.17857  0.39286  0.50000  1.0000
  Ag  Ag1880    1.0  0.14286  0.35714  0.57143  1.0000
  Ag  Ag1881    1.0  0.14286  0.39286  0.60714  1.0000
  Ag  Ag1882    1.0  0.17857  0.35714  0.60714  1.0000
  Ag  Ag1883    1.0  0.17857  0.39286  0.57143  1.0000
  Ag  Ag1884    1.0  0.14286  0.35714  0.64286  1.0000
  Ag  Ag1885    1.0  0.14286  0.39286  0.67857  1.0000
  Ag  Ag1886    1.0  0.17857  0.35714  0.67857  1.0000
  Ag  Ag1887    1.0  0.17857  0.39286  0.64286  1.0000
  Ag  Ag1888    1.0  0.14286  0.35714  0.71429  1.0000
  Ag  Ag1889    1.0  0.14286  0.39286  0.75000  1.0000
  Ag  Ag1890    1.0  0.17857  0.35714  0.75000  1.0000
  Ag  Ag1891    1.0  0.17857  0.39286  0.71429  1.0000
  Ag  Ag1892    1.0  0.14286  0.35714  0.78571  1.0000
  Ag  Ag1893    1.0  0.14286  0.39286  0.82143  1.0000
  Ag  Ag1894    1.0  0.17857  0.35714  0.82143  1.0000
  Ag  Ag1895    1.0  0.17857  0.39286  0.78571  1.0000
  Ag  Ag1896    1.0  0.14286  0.35714  0.85714  1.0000
  Ag  Ag1897    1.0  0.14286  0.39286  0.89286  1.0000
  Ag  Ag1898    1.0  0.17857  0.35714  0.89286  1.0000
  Ag  Ag1899    1.0  0.17857  0.39286  0.85714  1.0000
  Ag  Ag1900    1.0  0.14286  0.35714  0.92857  1.0000
  Ag  Ag1901    1.0  0.14286  0.39286  0.96429  1.0000
  Ag  Ag1902    1.0  0.17857  0.35714  0.96429  1.0000
  Ag  Ag1903    1.0  0.17857  0.39286  0.92857  1.0000
  Ag  Ag1904    1.0  0.14286  0.42857  0.00000  1.0000
  Ag  Ag1905    1.0  0.14286  0.46429  0.03571  1.0000
  Ag  Ag1906    1.0  0.17857  0.42857  0.03571  1.0000
  Ag  Ag1907    1.0  0.17857  0.46429  0.00000  1.0000
  Ag  Ag1908    1.0  0.14286  0.42857  0.07143  1.0000
  Ag  Ag1909    1.0  0.14286  0.46429  0.10714  1.0000
  Ag  Ag1910    1.0  0.17857  0.42857  0.10714  1.0000
  Ag  Ag1911    1.0  0.17857  0.46429  0.07143  1.0000
  Ag  Ag1912    1.0  0.14286  0.42857  0.14286  1.0000
  Ag  Ag1913    1.0  0.14286  0.46429  0.17857  1.0000
  Ag  Ag1914    1.0  0.17857  0.42857  0.17857  1.0000
  Ag  Ag1915    1.0  0.17857  0.46429  0.14286  1.0000
  Ag  Ag1916    1.0  0.14286  0.42857  0.21429  1.0000
  Ag  Ag1917    1.0  0.14286  0.46429  0.25000  1.0000
  Ag  Ag1918    1.0  0.17857  0.42857  0.25000  1.0000
  Ag  Ag1919    1.0  0.17857  0.46429  0.21429  1.0000
  Ag  Ag1920    1.0  0.14286  0.42857  0.28571  1.0000
  Ag  Ag1921    1.0  0.14286  0.46429  0.32143  1.0000
  Ag  Ag1922    1.0  0.17857  0.42857  0.32143  1.0000
  Ag  Ag1923    1.0  0.17857  0.46429  0.28571  1.0000
  Ag  Ag1924    1.0  0.14286  0.42857  0.35714  1.0000
  Ag  Ag1925    1.0  0.14286  0.46429  0.39286  1.0000
  Ag  Ag1926    1.0  0.17857  0.42857  0.39286  1.0000
  Ag  Ag1927    1.0  0.17857  0.46429  0.35714  1.0000
  Ag  Ag1928    1.0  0.14286  0.42857  0.42857  1.0000
  Ag  Ag1929    1.0  0.14286  0.46429  0.46429  1.0000
  Ag  Ag1930    1.0  0.17857  0.42857  0.46429  1.0000
  Ag  Ag1931    1.0  0.17857  0.46429  0.42857  1.0000
  Ag  Ag1932    1.0  0.14286  0.42857  0.50000  1.0000
  Ag  Ag1933    1.0  0.14286  0.46429  0.53571  1.0000
  Ag  Ag1934    1.0  0.17857  0.42857  0.53571  1.0000
  Ag  Ag1935    1.0  0.17857  0.46429  0.50000  1.0000
  Ag  Ag1936    1.0  0.14286  0.42857  0.57143  1.0000
  Ag  Ag1937    1.0  0.14286  0.46429  0.60714  1.0000
  Ag  Ag1938    1.0  0.17857  0.42857  0.60714  1.0000
  Ag  Ag1939    1.0  0.17857  0.46429  0.57143  1.0000
  Ag  Ag1940    1.0  0.14286  0.42857  0.64286  1.0000
  Ag  Ag1941    1.0  0.14286  0.46429  0.67857  1.0000
  Ag  Ag1942    1.0  0.17857  0.42857  0.67857  1.0000
  Ag  Ag1943    1.0  0.17857  0.46429  0.64286  1.0000
  Ag  Ag1944    1.0  0.14286  0.42857  0.71429  1.0000
  Ag  Ag1945    1.0  0.14286  0.46429  0.75000  1.0000
  Ag  Ag1946    1.0  0.17857  0.42857  0.75000  1.0000
  Ag  Ag1947    1.0  0.17857  0.46429  0.71429  1.0000
  Ag  Ag1948    1.0  0.14286  0.42857  0.78571  1.0000
  Ag  Ag1949    1.0  0.14286  0.46429  0.82143  1.0000
  Ag  Ag1950    1.0  0.17857  0.42857  0.82143  1.0000
  Ag  Ag1951    1.0  0.17857  0.46429  0.78571  1.0000
  Ag  Ag1952    1.0  0.14286  0.42857  0.85714  1.0000
  Ag  Ag1953    1.0  0.14286  0.46429  0.89286  1.0000
  Ag  Ag1954    1.0  0.17857  0.42857  0.89286  1.0000
  Ag  Ag1955    1.0  0.17857  0.46429  0.85714  1.0000
  Ag  Ag1956    1.0  0.14286  0.42857  0.92857  1.0000
  Ag  Ag1957    1.0  0.14286  0.46429  0.96429  1.0000
  Ag  Ag1958    1.0  0.17857  0.42857  0.96429  1.0000
  Ag  Ag1959    1.0  0.17857  0.46429  0.92857  1.0000
  Ag  Ag1960    1.0  0.14286  0.50000  0.00000  1.0000
  Ag  Ag1961    1.0  0.14286  0.53571  0.03571  1.0000
  Ag  Ag1962    1.0  0.17857  0.50000  0.03571  1.0000
  Ag  Ag1963    1.0  0.17857  0.53571  0.00000  1.0000
  Ag  Ag1964    1.0  0.14286  0.50000  0.07143  1.0000
  Ag  Ag1965    1.0  0.14286  0.53571  0.10714  1.0000
  Ag  Ag1966    1.0  0.17857  0.50000  0.10714  1.0000
  Ag  Ag1967    1.0  0.17857  0.53571  0.07143  1.0000
  Ag  Ag1968    1.0  0.14286  0.50000  0.14286  1.0000
  Ag  Ag1969    1.0  0.14286  0.53571  0.17857  1.0000
  Ag  Ag1970    1.0  0.17857  0.50000  0.17857  1.0000
  Ag  Ag1971    1.0  0.17857  0.53571  0.14286  1.0000
  Ag  Ag1972    1.0  0.14286  0.50000  0.21429  1.0000
  Ag  Ag1973    1.0  0.14286  0.53571  0.25000  1.0000
  Ag  Ag1974    1.0  0.17857  0.50000  0.25000  1.0000
  Ag  Ag1975    1.0  0.17857  0.53571  0.21429  1.0000
  Ag  Ag1976    1.0  0.14286  0.50000  0.28571  1.0000
  Ag  Ag1977    1.0  0.14286  0.53571  0.32143  1.0000
  Ag  Ag1978    1.0  0.17857  0.50000  0.32143  1.0000
  Ag  Ag1979    1.0  0.17857  0.53571  0.28571  1.0000
  Ag  Ag1980    1.0  0.14286  0.50000  0.35714  1.0000
  Ag  Ag1981    1.0  0.14286  0.53571  0.39286  1.0000
  Ag  Ag1982    1.0  0.17857  0.50000  0.39286  1.0000
  Ag  Ag1983    1.0  0.17857  0.53571  0.35714  1.0000
  Ag  Ag1984    1.0  0.14286  0.50000  0.42857  1.0000
  Ag  Ag1985    1.0  0.14286  0.53571  0.46429  1.0000
  Ag  Ag1986    1.0  0.17857  0.50000  0.46429  1.0000
  Ag  Ag1987    1.0  0.17857  0.53571  0.42857  1.0000
  Ag  Ag1988    1.0  0.14286  0.50000  0.50000  1.0000
  Ag  Ag1989    1.0  0.14286  0.53571  0.53571  1.0000
  Ag  Ag1990    1.0  0.17857  0.50000  0.53571  1.0000
  Ag  Ag1991    1.0  0.17857  0.53571  0.50000  1.0000
  Ag  Ag1992    1.0  0.14286  0.50000  0.57143  1.0000
  Ag  Ag1993    1.0  0.14286  0.53571  0.60714  1.0000
  Ag  Ag1994    1.0  0.17857  0.50000  0.60714  1.0000
  Ag  Ag1995    1.0  0.17857  0.53571  0.57143  1.0000
  Ag  Ag1996    1.0  0.14286  0.50000  0.64286  1.0000
  Ag  Ag1997    1.0  0.14286  0.53571  0.67857  1.0000
  Ag  Ag1998    1.0  0.17857  0.50000  0.67857  1.0000
  Ag  Ag1999    1.0  0.17857  0.53571  0.64286  1.0000
  Ag  Ag2000    1.0  0.14286  0.50000  0.71429  1.0000
  Ag  Ag2001    1.0  0.14286  0.53571  0.75000  1.0000
  Ag  Ag2002    1.0  0.17857  0.50000  0.75000  1.0000
  Ag  Ag2003    1.0  0.17857  0.53571  0.71429  1.0000
  Ag  Ag2004    1.0  0.14286  0.50000  0.78571  1.0000
  Ag  Ag2005    1.0  0.14286  0.53571  0.82143  1.0000
  Ag  Ag2006    1.0  0.17857  0.50000  0.82143  1.0000
  Ag  Ag2007    1.0  0.17857  0.53571  0.78571  1.0000
  Ag  Ag2008    1.0  0.14286  0.50000  0.85714  1.0000
  Ag  Ag2009    1.0  0.14286  0.53571  0.89286  1.0000
  Ag  Ag2010    1.0  0.17857  0.50000  0.89286  1.0000
  Ag  Ag2011    1.0  0.17857  0.53571  0.85714  1.0000
  Ag  Ag2012    1.0  0.14286  0.50000  0.92857  1.0000
  Ag  Ag2013    1.0  0.14286  0.53571  0.96429  1.0000
  Ag  Ag2014    1.0  0.17857  0.50000  0.96429  1.0000
  Ag  Ag2015    1.0  0.17857  0.53571  0.92857  1.0000
  Ag  Ag2016    1.0  0.14286  0.57143  0.00000  1.0000
  Ag  Ag2017    1.0  0.14286  0.60714  0.03571  1.0000
  Ag  Ag2018    1.0  0.17857  0.57143  0.03571  1.0000
  Ag  Ag2019    1.0  0.17857  0.60714  0.00000  1.0000
  Ag  Ag2020    1.0  0.14286  0.57143  0.07143  1.0000
  Ag  Ag2021    1.0  0.14286  0.60714  0.10714  1.0000
  Ag  Ag2022    1.0  0.17857  0.57143  0.10714  1.0000
  Ag  Ag2023    1.0  0.17857  0.60714  0.07143  1.0000
  Ag  Ag2024    1.0  0.14286  0.57143  0.14286  1.0000
  Ag  Ag2025    1.0  0.14286  0.60714  0.17857  1.0000
  Ag  Ag2026    1.0  0.17857  0.57143  0.17857  1.0000
  Ag  Ag2027    1.0  0.17857  0.60714  0.14286  1.0000
  Ag  Ag2028    1.0  0.14286  0.57143  0.21429  1.0000
  Ag  Ag2029    1.0  0.14286  0.60714  0.25000  1.0000
  Ag  Ag2030    1.0  0.17857  0.57143  0.25000  1.0000
  Ag  Ag2031    1.0  0.17857  0.60714  0.21429  1.0000
  Ag  Ag2032    1.0  0.14286  0.57143  0.28571  1.0000
  Ag  Ag2033    1.0  0.14286  0.60714  0.32143  1.0000
  Ag  Ag2034    1.0  0.17857  0.57143  0.32143  1.0000
  Ag  Ag2035    1.0  0.17857  0.60714  0.28571  1.0000
  Ag  Ag2036    1.0  0.14286  0.57143  0.35714  1.0000
  Ag  Ag2037    1.0  0.14286  0.60714  0.39286  1.0000
  Ag  Ag2038    1.0  0.17857  0.57143  0.39286  1.0000
  Ag  Ag2039    1.0  0.17857  0.60714  0.35714  1.0000
  Ag  Ag2040    1.0  0.14286  0.57143  0.42857  1.0000
  Ag  Ag2041    1.0  0.14286  0.60714  0.46429  1.0000
  Ag  Ag2042    1.0  0.17857  0.57143  0.46429  1.0000
  Ag  Ag2043    1.0  0.17857  0.60714  0.42857  1.0000
  Ag  Ag2044    1.0  0.14286  0.57143  0.50000  1.0000
  Ag  Ag2045    1.0  0.14286  0.60714  0.53571  1.0000
  Ag  Ag2046    1.0  0.17857  0.57143  0.53571  1.0000
  Ag  Ag2047    1.0  0.17857  0.60714  0.50000  1.0000
  Ag  Ag2048    1.0  0.14286  0.57143  0.57143  1.0000
  Ag  Ag2049    1.0  0.14286  0.60714  0.60714  1.0000
  Ag  Ag2050    1.0  0.17857  0.57143  0.60714  1.0000
  Ag  Ag2051    1.0  0.17857  0.60714  0.57143  1.0000
  Ag  Ag2052    1.0  0.14286  0.57143  0.64286  1.0000
  Ag  Ag2053    1.0  0.14286  0.60714  0.67857  1.0000
  Ag  Ag2054    1.0  0.17857  0.57143  0.67857  1.0000
  Ag  Ag2055    1.0  0.17857  0.60714  0.64286  1.0000
  Ag  Ag2056    1.0  0.14286  0.57143  0.71429  1.0000
  Ag  Ag2057    1.0  0.14286  0.60714  0.75000  1.0000
  Ag  Ag2058    1.0  0.17857  0.57143  0.75000  1.0000
  Ag  Ag2059    1.0  0.17857  0.60714  0.71429  1.0000
  Ag  Ag2060    1.0  0.14286  0.57143  0.78571  1.0000
  Ag  Ag2061    1.0  0.14286  0.60714  0.82143  1.0000
  Ag  Ag2062    1.0  0.17857  0.57143  0.82143  1.0000
  Ag  Ag2063    1.0  0.17857  0.60714  0.78571  1.0000
  Ag  Ag2064    1.0  0.14286  0.57143  0.85714  1.0000
  Ag  Ag2065    1.0  0.14286  0.60714  0.89286  1.0000
  Ag  Ag2066    1.0  0.17857  0.57143  0.89286  1.0000
  Ag  Ag2067    1.0  0.17857  0.60714  0.85714  1.0000
  Ag  Ag2068    1.0  0.14286  0.57143  0.92857  1.0000
  Ag  Ag2069    1.0  0.14286  0.60714  0.96429  1.0000
  Ag  Ag2070    1.0  0.17857  0.57143  0.96429  1.0000
  Ag  Ag2071    1.0  0.17857  0.60714  0.92857  1.0000
  Ag  Ag2072    1.0  0.14286  0.64286  0.00000  1.0000
  Ag  Ag2073    1.0  0.14286  0.67857  0.03571  1.0000
  Ag  Ag2074    1.0  0.17857  0.64286  0.03571  1.0000
  Ag  Ag2075    1.0  0.17857  0.67857  0.00000  1.0000
  Ag  Ag2076    1.0  0.14286  0.64286  0.07143  1.0000
  Ag  Ag2077    1.0  0.14286  0.67857  0.10714  1.0000
  Ag  Ag2078    1.0  0.17857  0.64286  0.10714  1.0000
  Ag  Ag2079    1.0  0.17857  0.67857  0.07143  1.0000
  Ag  Ag2080    1.0  0.14286  0.64286  0.14286  1.0000
  Ag  Ag2081    1.0  0.14286  0.67857  0.17857  1.0000
  Ag  Ag2082    1.0  0.17857  0.64286  0.17857  1.0000
  Ag  Ag2083    1.0  0.17857  0.67857  0.14286  1.0000
  Ag  Ag2084    1.0  0.14286  0.64286  0.21429  1.0000
  Ag  Ag2085    1.0  0.14286  0.67857  0.25000  1.0000
  Ag  Ag2086    1.0  0.17857  0.64286  0.25000  1.0000
  Ag  Ag2087    1.0  0.17857  0.67857  0.21429  1.0000
  Ag  Ag2088    1.0  0.14286  0.64286  0.28571  1.0000
  Ag  Ag2089    1.0  0.14286  0.67857  0.32143  1.0000
  Ag  Ag2090    1.0  0.17857  0.64286  0.32143  1.0000
  Ag  Ag2091    1.0  0.17857  0.67857  0.28571  1.0000
  Ag  Ag2092    1.0  0.14286  0.64286  0.35714  1.0000
  Ag  Ag2093    1.0  0.14286  0.67857  0.39286  1.0000
  Ag  Ag2094    1.0  0.17857  0.64286  0.39286  1.0000
  Ag  Ag2095    1.0  0.17857  0.67857  0.35714  1.0000
  Ag  Ag2096    1.0  0.14286  0.64286  0.42857  1.0000
  Ag  Ag2097    1.0  0.14286  0.67857  0.46429  1.0000
  Ag  Ag2098    1.0  0.17857  0.64286  0.46429  1.0000
  Ag  Ag2099    1.0  0.17857  0.67857  0.42857  1.0000
  Ag  Ag2100    1.0  0.14286  0.64286  0.50000  1.0000
  Ag  Ag2101    1.0  0.14286  0.67857  0.53571  1.0000
  Ag  Ag2102    1.0  0.17857  0.64286  0.53571  1.0000
  Ag  Ag2103    1.0  0.17857  0.67857  0.50000  1.0000
  Ag  Ag2104    1.0  0.14286  0.64286  0.57143  1.0000
  Ag  Ag2105    1.0  0.14286  0.67857  0.60714  1.0000
  Ag  Ag2106    1.0  0.17857  0.64286  0.60714  1.0000
  Ag  Ag2107    1.0  0.17857  0.67857  0.57143  1.0000
  Ag  Ag2108    1.0  0.14286  0.64286  0.64286  1.0000
  Ag  Ag2109    1.0  0.14286  0.67857  0.67857  1.0000
  Ag  Ag2110    1.0  0.17857  0.64286  0.67857  1.0000
  Ag  Ag2111    1.0  0.17857  0.67857  0.64286  1.0000
  Ag  Ag2112    1.0  0.14286  0.64286  0.71429  1.0000
  Ag  Ag2113    1.0  0.14286  0.67857  0.75000  1.0000
  Ag  Ag2114    1.0  0.17857  0.64286  0.75000  1.0000
  Ag  Ag2115    1.0  0.17857  0.67857  0.71429  1.0000
  Ag  Ag2116    1.0  0.14286  0.64286  0.78571  1.0000
  Ag  Ag2117    1.0  0.14286  0.67857  0.82143  1.0000
  Ag  Ag2118    1.0  0.17857  0.64286  0.82143  1.0000
  Ag  Ag2119    1.0  0.17857  0.67857  0.78571  1.0000
  Ag  Ag2120    1.0  0.14286  0.64286  0.85714  1.0000
  Ag  Ag2121    1.0  0.14286  0.67857  0.89286  1.0000
  Ag  Ag2122    1.0  0.17857  0.64286  0.89286  1.0000
  Ag  Ag2123    1.0  0.17857  0.67857  0.85714  1.0000
  Ag  Ag2124    1.0  0.14286  0.64286  0.92857  1.0000
  Ag  Ag2125    1.0  0.14286  0.67857  0.96429  1.0000
  Ag  Ag2126    1.0  0.17857  0.64286  0.96429  1.0000
  Ag  Ag2127    1.0  0.17857  0.67857  0.92857  1.0000
  Ag  Ag2128    1.0  0.14286  0.71429  0.00000  1.0000
  Ag  Ag2129    1.0  0.14286  0.75000  0.03571  1.0000
  Ag  Ag2130    1.0  0.17857  0.71429  0.03571  1.0000
  Ag  Ag2131    1.0  0.17857  0.75000  0.00000  1.0000
  Ag  Ag2132    1.0  0.14286  0.71429  0.07143  1.0000
  Ag  Ag2133    1.0  0.14286  0.75000  0.10714  1.0000
  Ag  Ag2134    1.0  0.17857  0.71429  0.10714  1.0000
  Ag  Ag2135    1.0  0.17857  0.75000  0.07143  1.0000
  Ag  Ag2136    1.0  0.14286  0.71429  0.14286  1.0000
  Ag  Ag2137    1.0  0.14286  0.75000  0.17857  1.0000
  Ag  Ag2138    1.0  0.17857  0.71429  0.17857  1.0000
  Ag  Ag2139    1.0  0.17857  0.75000  0.14286  1.0000
  Ag  Ag2140    1.0  0.14286  0.71429  0.21429  1.0000
  Ag  Ag2141    1.0  0.14286  0.75000  0.25000  1.0000
  Ag  Ag2142    1.0  0.17857  0.71429  0.25000  1.0000
  Ag  Ag2143    1.0  0.17857  0.75000  0.21429  1.0000
  Ag  Ag2144    1.0  0.14286  0.71429  0.28571  1.0000
  Ag  Ag2145    1.0  0.14286  0.75000  0.32143  1.0000
  Ag  Ag2146    1.0  0.17857  0.71429  0.32143  1.0000
  Ag  Ag2147    1.0  0.17857  0.75000  0.28571  1.0000
  Ag  Ag2148    1.0  0.14286  0.71429  0.35714  1.0000
  Ag  Ag2149    1.0  0.14286  0.75000  0.39286  1.0000
  Ag  Ag2150    1.0  0.17857  0.71429  0.39286  1.0000
  Ag  Ag2151    1.0  0.17857  0.75000  0.35714  1.0000
  Ag  Ag2152    1.0  0.14286  0.71429  0.42857  1.0000
  Ag  Ag2153    1.0  0.14286  0.75000  0.46429  1.0000
  Ag  Ag2154    1.0  0.17857  0.71429  0.46429  1.0000
  Ag  Ag2155    1.0  0.17857  0.75000  0.42857  1.0000
  Ag  Ag2156    1.0  0.14286  0.71429  0.50000  1.0000
  Ag  Ag2157    1.0  0.14286  0.75000  0.53571  1.0000
  Ag  Ag2158    1.0  0.17857  0.71429  0.53571  1.0000
  Ag  Ag2159    1.0  0.17857  0.75000  0.50000  1.0000
  Ag  Ag2160    1.0  0.14286  0.71429  0.57143  1.0000
  Ag  Ag2161    1.0  0.14286  0.75000  0.60714  1.0000
  Ag  Ag2162    1.0  0.17857  0.71429  0.60714  1.0000
  Ag  Ag2163    1.0  0.17857  0.75000  0.57143  1.0000
  Ag  Ag2164    1.0  0.14286  0.71429  0.64286  1.0000
  Ag  Ag2165    1.0  0.14286  0.75000  0.67857  1.0000
  Ag  Ag2166    1.0  0.17857  0.71429  0.67857  1.0000
  Ag  Ag2167    1.0  0.17857  0.75000  0.64286  1.0000
  Ag  Ag2168    1.0  0.14286  0.71429  0.71429  1.0000
  Ag  Ag2169    1.0  0.14286  0.75000  0.75000  1.0000
  Ag  Ag2170    1.0  0.17857  0.71429  0.75000  1.0000
  Ag  Ag2171    1.0  0.17857  0.75000  0.71429  1.0000
  Ag  Ag2172    1.0  0.14286  0.71429  0.78571  1.0000
  Ag  Ag2173    1.0  0.14286  0.75000  0.82143  1.0000
  Ag  Ag2174    1.0  0.17857  0.71429  0.82143  1.0000
  Ag  Ag2175    1.0  0.17857  0.75000  0.78571  1.0000
  Ag  Ag2176    1.0  0.14286  0.71429  0.85714  1.0000
  Ag  Ag2177    1.0  0.14286  0.75000  0.89286  1.0000
  Ag  Ag2178    1.0  0.17857  0.71429  0.89286  1.0000
  Ag  Ag2179    1.0  0.17857  0.75000  0.85714  1.0000
  Ag  Ag2180    1.0  0.14286  0.71429  0.92857  1.0000
  Ag  Ag2181    1.0  0.14286  0.75000  0.96429  1.0000
  Ag  Ag2182    1.0  0.17857  0.71429  0.96429  1.0000
  Ag  Ag2183    1.0  0.17857  0.75000  0.92857  1.0000
  Ag  Ag2184    1.0  0.14286  0.78571  0.00000  1.0000
  Ag  Ag2185    1.0  0.14286  0.82143  0.03571  1.0000
  Ag  Ag2186    1.0  0.17857  0.78571  0.03571  1.0000
  Ag  Ag2187    1.0  0.17857  0.82143  0.00000  1.0000
  Ag  Ag2188    1.0  0.14286  0.78571  0.07143  1.0000
  Ag  Ag2189    1.0  0.14286  0.82143  0.10714  1.0000
  Ag  Ag2190    1.0  0.17857  0.78571  0.10714  1.0000
  Ag  Ag2191    1.0  0.17857  0.82143  0.07143  1.0000
  Ag  Ag2192    1.0  0.14286  0.78571  0.14286  1.0000
  Ag  Ag2193    1.0  0.14286  0.82143  0.17857  1.0000
  Ag  Ag2194    1.0  0.17857  0.78571  0.17857  1.0000
  Ag  Ag2195    1.0  0.17857  0.82143  0.14286  1.0000
  Ag  Ag2196    1.0  0.14286  0.78571  0.21429  1.0000
  Ag  Ag2197    1.0  0.14286  0.82143  0.25000  1.0000
  Ag  Ag2198    1.0  0.17857  0.78571  0.25000  1.0000
  Ag  Ag2199    1.0  0.17857  0.82143  0.21429  1.0000
  Ag  Ag2200    1.0  0.14286  0.78571  0.28571  1.0000
  Ag  Ag2201    1.0  0.14286  0.82143  0.32143  1.0000
  Ag  Ag2202    1.0  0.17857  0.78571  0.32143  1.0000
  Ag  Ag2203    1.0  0.17857  0.82143  0.28571  1.0000
  Ag  Ag2204    1.0  0.14286  0.78571  0.35714  1.0000
  Ag  Ag2205    1.0  0.14286  0.82143  0.39286  1.0000
  Ag  Ag2206    1.0  0.17857  0.78571  0.39286  1.0000
  Ag  Ag2207    1.0  0.17857  0.82143  0.35714  1.0000
  Ag  Ag2208    1.0  0.14286  0.78571  0.42857  1.0000
  Ag  Ag2209    1.0  0.14286  0.82143  0.46429  1.0000
  Ag  Ag2210    1.0  0.17857  0.78571  0.46429  1.0000
  Ag  Ag2211    1.0  0.17857  0.82143  0.42857  1.0000
  Ag  Ag2212    1.0  0.14286  0.78571  0.50000  1.0000
  Ag  Ag2213    1.0  0.14286  0.82143  0.53571  1.0000
  Ag  Ag2214    1.0  0.17857  0.78571  0.53571  1.0000
  Ag  Ag2215    1.0  0.17857  0.82143  0.50000  1.0000
  Ag  Ag2216    1.0  0.14286  0.78571  0.57143  1.0000
  Ag  Ag2217    1.0  0.14286  0.82143  0.60714  1.0000
  Ag  Ag2218    1.0  0.17857  0.78571  0.60714  1.0000
  Ag  Ag2219    1.0  0.17857  0.82143  0.57143  1.0000
  Ag  Ag2220    1.0  0.14286  0.78571  0.64286  1.0000
  Ag  Ag2221    1.0  0.14286  0.82143  0.67857  1.0000
  Ag  Ag2222    1.0  0.17857  0.78571  0.67857  1.0000
  Ag  Ag2223    1.0  0.17857  0.82143  0.64286  1.0000
  Ag  Ag2224    1.0  0.14286  0.78571  0.71429  1.0000
  Ag  Ag2225    1.0  0.14286  0.82143  0.75000  1.0000
  Ag  Ag2226    1.0  0.17857  0.78571  0.75000  1.0000
  Ag  Ag2227    1.0  0.17857  0.82143  0.71429  1.0000
  Ag  Ag2228    1.0  0.14286  0.78571  0.78571  1.0000
  Ag  Ag2229    1.0  0.14286  0.82143  0.82143  1.0000
  Ag  Ag2230    1.0  0.17857  0.78571  0.82143  1.0000
  Ag  Ag2231    1.0  0.17857  0.82143  0.78571  1.0000
  Ag  Ag2232    1.0  0.14286  0.78571  0.85714  1.0000
  Ag  Ag2233    1.0  0.14286  0.82143  0.89286  1.0000
  Ag  Ag2234    1.0  0.17857  0.78571  0.89286  1.0000
  Ag  Ag2235    1.0  0.17857  0.82143  0.85714  1.0000
  Ag  Ag2236    1.0  0.14286  0.78571  0.92857  1.0000
  Ag  Ag2237    1.0  0.14286  0.82143  0.96429  1.0000
  Ag  Ag2238    1.0  0.17857  0.78571  0.96429  1.0000
  Ag  Ag2239    1.0  0.17857  0.82143  0.92857  1.0000
  Ag  Ag2240    1.0  0.14286  0.85714  0.00000  1.0000
  Ag  Ag2241    1.0  0.14286  0.89286  0.03571  1.0000
  Ag  Ag2242    1.0  0.17857  0.85714  0.03571  1.0000
  Ag  Ag2243    1.0  0.17857  0.89286  0.00000  1.0000
  Ag  Ag2244    1.0  0.14286  0.85714  0.07143  1.0000
  Ag  Ag2245    1.0  0.14286  0.89286  0.10714  1.0000
  Ag  Ag2246    1.0  0.17857  0.85714  0.10714  1.0000
  Ag  Ag2247    1.0  0.17857  0.89286  0.07143  1.0000
  Ag  Ag2248    1.0  0.14286  0.85714  0.14286  1.0000
  Ag  Ag2249    1.0  0.14286  0.89286  0.17857  1.0000
  Ag  Ag2250    1.0  0.17857  0.85714  0.17857  1.0000
  Ag  Ag2251    1.0  0.17857  0.89286  0.14286  1.0000
  Ag  Ag2252    1.0  0.14286  0.85714  0.21429  1.0000
  Ag  Ag2253    1.0  0.14286  0.89286  0.25000  1.0000
  Ag  Ag2254    1.0  0.17857  0.85714  0.25000  1.0000
  Ag  Ag2255    1.0  0.17857  0.89286  0.21429  1.0000
  Ag  Ag2256    1.0  0.14286  0.85714  0.28571  1.0000
  Ag  Ag2257    1.0  0.14286  0.89286  0.32143  1.0000
  Ag  Ag2258    1.0  0.17857  0.85714  0.32143  1.0000
  Ag  Ag2259    1.0  0.17857  0.89286  0.28571  1.0000
  Ag  Ag2260    1.0  0.14286  0.85714  0.35714  1.0000
  Ag  Ag2261    1.0  0.14286  0.89286  0.39286  1.0000
  Ag  Ag2262    1.0  0.17857  0.85714  0.39286  1.0000
  Ag  Ag2263    1.0  0.17857  0.89286  0.35714  1.0000
  Ag  Ag2264    1.0  0.14286  0.85714  0.42857  1.0000
  Ag  Ag2265    1.0  0.14286  0.89286  0.46429  1.0000
  Ag  Ag2266    1.0  0.17857  0.85714  0.46429  1.0000
  Ag  Ag2267    1.0  0.17857  0.89286  0.42857  1.0000
  Ag  Ag2268    1.0  0.14286  0.85714  0.50000  1.0000
  Ag  Ag2269    1.0  0.14286  0.89286  0.53571  1.0000
  Ag  Ag2270    1.0  0.17857  0.85714  0.53571  1.0000
  Ag  Ag2271    1.0  0.17857  0.89286  0.50000  1.0000
  Ag  Ag2272    1.0  0.14286  0.85714  0.57143  1.0000
  Ag  Ag2273    1.0  0.14286  0.89286  0.60714  1.0000
  Ag  Ag2274    1.0  0.17857  0.85714  0.60714  1.0000
  Ag  Ag2275    1.0  0.17857  0.89286  0.57143  1.0000
  Ag  Ag2276    1.0  0.14286  0.85714  0.64286  1.0000
  Ag  Ag2277    1.0  0.14286  0.89286  0.67857  1.0000
  Ag  Ag2278    1.0  0.17857  0.85714  0.67857  1.0000
  Ag  Ag2279    1.0  0.17857  0.89286  0.64286  1.0000
  Ag  Ag2280    1.0  0.14286  0.85714  0.71429  1.0000
  Ag  Ag2281    1.0  0.14286  0.89286  0.75000  1.0000
  Ag  Ag2282    1.0  0.17857  0.85714  0.75000  1.0000
  Ag  Ag2283    1.0  0.17857  0.89286  0.71429  1.0000
  Ag  Ag2284    1.0  0.14286  0.85714  0.78571  1.0000
  Ag  Ag2285    1.0  0.14286  0.89286  0.82143  1.0000
  Ag  Ag2286    1.0  0.17857  0.85714  0.82143  1.0000
  Ag  Ag2287    1.0  0.17857  0.89286  0.78571  1.0000
  Ag  Ag2288    1.0  0.14286  0.85714  0.85714  1.0000
  Ag  Ag2289    1.0  0.14286  0.89286  0.89286  1.0000
  Ag  Ag2290    1.0  0.17857  0.85714  0.89286  1.0000
  Ag  Ag2291    1.0  0.17857  0.89286  0.85714  1.0000
  Ag  Ag2292    1.0  0.14286  0.85714  0.92857  1.0000
  Ag  Ag2293    1.0  0.14286  0.89286  0.96429  1.0000
  Ag  Ag2294    1.0  0.17857  0.85714  0.96429  1.0000
  Ag  Ag2295    1.0  0.17857  0.89286  0.92857  1.0000
  Ag  Ag2296    1.0  0.14286  0.92857  0.00000  1.0000
  Ag  Ag2297    1.0  0.14286  0.96429  0.03571  1.0000
  Ag  Ag2298    1.0  0.17857  0.92857  0.03571  1.0000
  Ag  Ag2299    1.0  0.17857  0.96429  0.00000  1.0000
  Ag  Ag2300    1.0  0.14286  0.92857  0.07143  1.0000
  Ag  Ag2301    1.0  0.14286  0.96429  0.10714  1.0000
  Ag  Ag2302    1.0  0.17857  0.92857  0.10714  1.0000
  Ag  Ag2303    1.0  0.17857  0.96429  0.07143  1.0000
  Ag  Ag2304    1.0  0.14286  0.92857  0.14286  1.0000
  Ag  Ag2305    1.0  0.14286  0.96429  0.17857  1.0000
  Ag  Ag2306    1.0  0.17857  0.92857  0.17857  1.0000
  Ag  Ag2307    1.0  0.17857  0.96429  0.14286  1.0000
  Ag  Ag2308    1.0  0.14286  0.92857  0.21429  1.0000
  Ag  Ag2309    1.0  0.14286  0.96429  0.25000  1.0000
  Ag  Ag2310    1.0  0.17857  0.92857  0.25000  1.0000
  Ag  Ag2311    1.0  0.17857  0.96429  0.21429  1.0000
  Ag  Ag2312    1.0  0.14286  0.92857  0.28571  1.0000
  Ag  Ag2313    1.0  0.14286  0.96429  0.32143  1.0000
  Ag  Ag2314    1.0  0.17857  0.92857  0.32143  1.0000
  Ag  Ag2315    1.0  0.17857  0.96429  0.28571  1.0000
  Ag  Ag2316    1.0  0.14286  0.92857  0.35714  1.0000
  Ag  Ag2317    1.0  0.14286  0.96429  0.39286  1.0000
  Ag  Ag2318    1.0  0.17857  0.92857  0.39286  1.0000
  Ag  Ag2319    1.0  0.17857  0.96429  0.35714  1.0000
  Ag  Ag2320    1.0  0.14286  0.92857  0.42857  1.0000
  Ag  Ag2321    1.0  0.14286  0.96429  0.46429  1.0000
  Ag  Ag2322    1.0  0.17857  0.92857  0.46429  1.0000
  Ag  Ag2323    1.0  0.17857  0.96429  0.42857  1.0000
  Ag  Ag2324    1.0  0.14286  0.92857  0.50000  1.0000
  Ag  Ag2325    1.0  0.14286  0.96429  0.53571  1.0000
  Ag  Ag2326    1.0  0.17857  0.92857  0.53571  1.0000
  Ag  Ag2327    1.0  0.17857  0.96429  0.50000  1.0000
  Ag  Ag2328    1.0  0.14286  0.92857  0.57143  1.0000
  Ag  Ag2329    1.0  0.14286  0.96429  0.60714  1.0000
  Ag  Ag2330    1.0  0.17857  0.92857  0.60714  1.0000
  Ag  Ag2331    1.0  0.17857  0.96429  0.57143  1.0000
  Ag  Ag2332    1.0  0.14286  0.92857  0.64286  1.0000
  Ag  Ag2333    1.0  0.14286  0.96429  0.67857  1.0000
  Ag  Ag2334    1.0  0.17857  0.92857  0.67857  1.0000
  Ag  Ag2335    1.0  0.17857  0.96429  0.64286  1.0000
  Ag  Ag2336    1.0  0.14286  0.92857  0.71429  1.0000
  Ag  Ag2337    1.0  0.14286  0.96429  0.75000  1.0000
  Ag  Ag2338    1.0  0.17857  0.92857  0.75000  1.0000
  Ag  Ag2339    1.0  0.17857  0.96429  0.71429  1.0000
  Ag  Ag2340    1.0  0.14286  0.92857  0.78571  1.0000
  Ag  Ag2341    1.0  0.14286  0.96429  0.82143  1.0000
  Ag  Ag2342    1.0  0.17857  0.92857  0.82143  1.0000
  Ag  Ag2343    1.0  0.17857  0.96429  0.78571  1.0000
  Ag  Ag2344    1.0  0.14286  0.92857  0.85714  1.0000
  Ag  Ag2345    1.0  0.14286  0.96429  0.89286  1.0000
  Ag  Ag2346    1.0  0.17857  0.92857  0.89286  1.0000
  Ag  Ag2347    1.0  0.17857  0.96429  0.85714  1.0000
  Ag  Ag2348    1.0  0.14286  0.92857  0.92857  1.0000
  Ag  Ag2349    1.0  0.14286  0.96429  0.96429  1.0000
  Ag  Ag2350    1.0  0.17857  0.92857  0.96429  1.0000
  Ag  Ag2351    1.0  0.17857  0.96429  0.92857  1.0000
  Ag  Ag2352    1.0  0.21429  0.00000  0.00000  1.0000
  Ag  Ag2353    1.0  0.21429  0.03571  0.03571  1.0000
  Ag  Ag2354    1.0  0.25000  0.00000  0.03571  1.0000
  Ag  Ag2355    1.0  0.25000  0.03571  0.00000  1.0000
  Ag  Ag2356    1.0  0.21429  0.00000  0.07143  1.0000
  Ag  Ag2357    1.0  0.21429  0.03571  0.10714  1.0000
  Ag  Ag2358    1.0  0.25000  0.00000  0.10714  1.0000
  Ag  Ag2359    1.0  0.25000  0.03571  0.07143  1.0000
  Ag  Ag2360    1.0  0.21429  0.00000  0.14286  1.0000
  Ag  Ag2361    1.0  0.21429  0.03571  0.17857  1.0000
  Ag  Ag2362    1.0  0.25000  0.00000  0.17857  1.0000
  Ag  Ag2363    1.0  0.25000  0.03571  0.14286  1.0000
  Ag  Ag2364    1.0  0.21429  0.00000  0.21429  1.0000
  Ag  Ag2365    1.0  0.21429  0.03571  0.25000  1.0000
  Ag  Ag2366    1.0  0.25000  0.00000  0.25000  1.0000
  Ag  Ag2367    1.0  0.25000  0.03571  0.21429  1.0000
  Ag  Ag2368    1.0  0.21429  0.00000  0.28571  1.0000
  Ag  Ag2369    1.0  0.21429  0.03571  0.32143  1.0000
  Ag  Ag2370    1.0  0.25000  0.00000  0.32143  1.0000
  Ag  Ag2371    1.0  0.25000  0.03571  0.28571  1.0000
  Ag  Ag2372    1.0  0.21429  0.00000  0.35714  1.0000
  Ag  Ag2373    1.0  0.21429  0.03571  0.39286  1.0000
  Ag  Ag2374    1.0  0.25000  0.00000  0.39286  1.0000
  Ag  Ag2375    1.0  0.25000  0.03571  0.35714  1.0000
  Ag  Ag2376    1.0  0.21429  0.00000  0.42857  1.0000
  Ag  Ag2377    1.0  0.21429  0.03571  0.46429  1.0000
  Ag  Ag2378    1.0  0.25000  0.00000  0.46429  1.0000
  Ag  Ag2379    1.0  0.25000  0.03571  0.42857  1.0000
  Ag  Ag2380    1.0  0.21429  0.00000  0.50000  1.0000
  Ag  Ag2381    1.0  0.21429  0.03571  0.53571  1.0000
  Ag  Ag2382    1.0  0.25000  0.00000  0.53571  1.0000
  Ag  Ag2383    1.0  0.25000  0.03571  0.50000  1.0000
  Ag  Ag2384    1.0  0.21429  0.00000  0.57143  1.0000
  Ag  Ag2385    1.0  0.21429  0.03571  0.60714  1.0000
  Ag  Ag2386    1.0  0.25000  0.00000  0.60714  1.0000
  Ag  Ag2387    1.0  0.25000  0.03571  0.57143  1.0000
  Ag  Ag2388    1.0  0.21429  0.00000  0.64286  1.0000
  Ag  Ag2389    1.0  0.21429  0.03571  0.67857  1.0000
  Ag  Ag2390    1.0  0.25000  0.00000  0.67857  1.0000
  Ag  Ag2391    1.0  0.25000  0.03571  0.64286  1.0000
  Ag  Ag2392    1.0  0.21429  0.00000  0.71429  1.0000
  Ag  Ag2393    1.0  0.21429  0.03571  0.75000  1.0000
  Ag  Ag2394    1.0  0.25000  0.00000  0.75000  1.0000
  Ag  Ag2395    1.0  0.25000  0.03571  0.71429  1.0000
  Ag  Ag2396    1.0  0.21429  0.00000  0.78571  1.0000
  Ag  Ag2397    1.0  0.21429  0.03571  0.82143  1.0000
  Ag  Ag2398    1.0  0.25000  0.00000  0.82143  1.0000
  Ag  Ag2399    1.0  0.25000  0.03571  0.78571  1.0000
  Ag  Ag2400    1.0  0.21429  0.00000  0.85714  1.0000
  Ag  Ag2401    1.0  0.21429  0.03571  0.89286  1.0000
  Ag  Ag2402    1.0  0.25000  0.00000  0.89286  1.0000
  Ag  Ag2403    1.0  0.25000  0.03571  0.85714  1.0000
  Ag  Ag2404    1.0  0.21429  0.00000  0.92857  1.0000
  Ag  Ag2405    1.0  0.21429  0.03571  0.96429  1.0000
  Ag  Ag2406    1.0  0.25000  0.00000  0.96429  1.0000
  Ag  Ag2407    1.0  0.25000  0.03571  0.92857  1.0000
  Ag  Ag2408    1.0  0.21429  0.07143  0.00000  1.0000
  Ag  Ag2409    1.0  0.21429  0.10714  0.03571  1.0000
  Ag  Ag2410    1.0  0.25000  0.07143  0.03571  1.0000
  Ag  Ag2411    1.0  0.25000  0.10714  0.00000  1.0000
  Ag  Ag2412    1.0  0.21429  0.07143  0.07143  1.0000
  Ag  Ag2413    1.0  0.21429  0.10714  0.10714  1.0000
  Ag  Ag2414    1.0  0.25000  0.07143  0.10714  1.0000
  Ag  Ag2415    1.0  0.25000  0.10714  0.07143  1.0000
  Ag  Ag2416    1.0  0.21429  0.07143  0.14286  1.0000
  Ag  Ag2417    1.0  0.21429  0.10714  0.17857  1.0000
  Ag  Ag2418    1.0  0.25000  0.07143  0.17857  1.0000
  Ag  Ag2419    1.0  0.25000  0.10714  0.14286  1.0000
  Ag  Ag2420    1.0  0.21429  0.07143  0.21429  1.0000
  Ag  Ag2421    1.0  0.21429  0.10714  0.25000  1.0000
  Ag  Ag2422    1.0  0.25000  0.07143  0.25000  1.0000
  Ag  Ag2423    1.0  0.25000  0.10714  0.21429  1.0000
  Ag  Ag2424    1.0  0.21429  0.07143  0.28571  1.0000
  Ag  Ag2425    1.0  0.21429  0.10714  0.32143  1.0000
  Ag  Ag2426    1.0  0.25000  0.07143  0.32143  1.0000
  Ag  Ag2427    1.0  0.25000  0.10714  0.28571  1.0000
  Ag  Ag2428    1.0  0.21429  0.07143  0.35714  1.0000
  Ag  Ag2429    1.0  0.21429  0.10714  0.39286  1.0000
  Ag  Ag2430    1.0  0.25000  0.07143  0.39286  1.0000
  Ag  Ag2431    1.0  0.25000  0.10714  0.35714  1.0000
  Ag  Ag2432    1.0  0.21429  0.07143  0.42857  1.0000
  Ag  Ag2433    1.0  0.21429  0.10714  0.46429  1.0000
  Ag  Ag2434    1.0  0.25000  0.07143  0.46429  1.0000
  Ag  Ag2435    1.0  0.25000  0.10714  0.42857  1.0000
  Ag  Ag2436    1.0  0.21429  0.07143  0.50000  1.0000
  Ag  Ag2437    1.0  0.21429  0.10714  0.53571  1.0000
  Ag  Ag2438    1.0  0.25000  0.07143  0.53571  1.0000
  Ag  Ag2439    1.0  0.25000  0.10714  0.50000  1.0000
  Ag  Ag2440    1.0  0.21429  0.07143  0.57143  1.0000
  Ag  Ag2441    1.0  0.21429  0.10714  0.60714  1.0000
  Ag  Ag2442    1.0  0.25000  0.07143  0.60714  1.0000
  Ag  Ag2443    1.0  0.25000  0.10714  0.57143  1.0000
  Ag  Ag2444    1.0  0.21429  0.07143  0.64286  1.0000
  Ag  Ag2445    1.0  0.21429  0.10714  0.67857  1.0000
  Ag  Ag2446    1.0  0.25000  0.07143  0.67857  1.0000
  Ag  Ag2447    1.0  0.25000  0.10714  0.64286  1.0000
  Ag  Ag2448    1.0  0.21429  0.07143  0.71429  1.0000
  Ag  Ag2449    1.0  0.21429  0.10714  0.75000  1.0000
  Ag  Ag2450    1.0  0.25000  0.07143  0.75000  1.0000
  Ag  Ag2451    1.0  0.25000  0.10714  0.71429  1.0000
  Ag  Ag2452    1.0  0.21429  0.07143  0.78571  1.0000
  Ag  Ag2453    1.0  0.21429  0.10714  0.82143  1.0000
  Ag  Ag2454    1.0  0.25000  0.07143  0.82143  1.0000
  Ag  Ag2455    1.0  0.25000  0.10714  0.78571  1.0000
  Ag  Ag2456    1.0  0.21429  0.07143  0.85714  1.0000
  Ag  Ag2457    1.0  0.21429  0.10714  0.89286  1.0000
  Ag  Ag2458    1.0  0.25000  0.07143  0.89286  1.0000
  Ag  Ag2459    1.0  0.25000  0.10714  0.85714  1.0000
  Ag  Ag2460    1.0  0.21429  0.07143  0.92857  1.0000
  Ag  Ag2461    1.0  0.21429  0.10714  0.96429  1.0000
  Ag  Ag2462    1.0  0.25000  0.07143  0.96429  1.0000
  Ag  Ag2463    1.0  0.25000  0.10714  0.92857  1.0000
  Ag  Ag2464    1.0  0.21429  0.14286  0.00000  1.0000
  Ag  Ag2465    1.0  0.21429  0.17857  0.03571  1.0000
  Ag  Ag2466    1.0  0.25000  0.14286  0.03571  1.0000
  Ag  Ag2467    1.0  0.25000  0.17857  0.00000  1.0000
  Ag  Ag2468    1.0  0.21429  0.14286  0.07143  1.0000
  Ag  Ag2469    1.0  0.21429  0.17857  0.10714  1.0000
  Ag  Ag2470    1.0  0.25000  0.14286  0.10714  1.0000
  Ag  Ag2471    1.0  0.25000  0.17857  0.07143  1.0000
  Ag  Ag2472    1.0  0.21429  0.14286  0.14286  1.0000
  Ag  Ag2473    1.0  0.21429  0.17857  0.17857  1.0000
  Ag  Ag2474    1.0  0.25000  0.14286  0.17857  1.0000
  Ag  Ag2475    1.0  0.25000  0.17857  0.14286  1.0000
  Ag  Ag2476    1.0  0.21429  0.14286  0.21429  1.0000
  Ag  Ag2477    1.0  0.21429  0.17857  0.25000  1.0000
  Ag  Ag2478    1.0  0.25000  0.14286  0.25000  1.0000
  Ag  Ag2479    1.0  0.25000  0.17857  0.21429  1.0000
  Ag  Ag2480    1.0  0.21429  0.14286  0.28571  1.0000
  Ag  Ag2481    1.0  0.21429  0.17857  0.32143  1.0000
  Ag  Ag2482    1.0  0.25000  0.14286  0.32143  1.0000
  Ag  Ag2483    1.0  0.25000  0.17857  0.28571  1.0000
  Ag  Ag2484    1.0  0.21429  0.14286  0.35714  1.0000
  Ag  Ag2485    1.0  0.21429  0.17857  0.39286  1.0000
  Ag  Ag2486    1.0  0.25000  0.14286  0.39286  1.0000
  Ag  Ag2487    1.0  0.25000  0.17857  0.35714  1.0000
  Ag  Ag2488    1.0  0.21429  0.14286  0.42857  1.0000
  Ag  Ag2489    1.0  0.21429  0.17857  0.46429  1.0000
  Ag  Ag2490    1.0  0.25000  0.14286  0.46429  1.0000
  Ag  Ag2491    1.0  0.25000  0.17857  0.42857  1.0000
  Ag  Ag2492    1.0  0.21429  0.14286  0.50000  1.0000
  Ag  Ag2493    1.0  0.21429  0.17857  0.53571  1.0000
  Ag  Ag2494    1.0  0.25000  0.14286  0.53571  1.0000
  Ag  Ag2495    1.0  0.25000  0.17857  0.50000  1.0000
  Ag  Ag2496    1.0  0.21429  0.14286  0.57143  1.0000
  Ag  Ag2497    1.0  0.21429  0.17857  0.60714  1.0000
  Ag  Ag2498    1.0  0.25000  0.14286  0.60714  1.0000
  Ag  Ag2499    1.0  0.25000  0.17857  0.57143  1.0000
  Ag  Ag2500    1.0  0.21429  0.14286  0.64286  1.0000
  Ag  Ag2501    1.0  0.21429  0.17857  0.67857  1.0000
  Ag  Ag2502    1.0  0.25000  0.14286  0.67857  1.0000
  Ag  Ag2503    1.0  0.25000  0.17857  0.64286  1.0000
  Ag  Ag2504    1.0  0.21429  0.14286  0.71429  1.0000
  Ag  Ag2505    1.0  0.21429  0.17857  0.75000  1.0000
  Ag  Ag2506    1.0  0.25000  0.14286  0.75000  1.0000
  Ag  Ag2507    1.0  0.25000  0.17857  0.71429  1.0000
  Ag  Ag2508    1.0  0.21429  0.14286  0.78571  1.0000
  Ag  Ag2509    1.0  0.21429  0.17857  0.82143  1.0000
  Ag  Ag2510    1.0  0.25000  0.14286  0.82143  1.0000
  Ag  Ag2511    1.0  0.25000  0.17857  0.78571  1.0000
  Ag  Ag2512    1.0  0.21429  0.14286  0.85714  1.0000
  Ag  Ag2513    1.0  0.21429  0.17857  0.89286  1.0000
  Ag  Ag2514    1.0  0.25000  0.14286  0.89286  1.0000
  Ag  Ag2515    1.0  0.25000  0.17857  0.85714  1.0000
  Ag  Ag2516    1.0  0.21429  0.14286  0.92857  1.0000
  Ag  Ag2517    1.0  0.21429  0.17857  0.96429  1.0000
  Ag  Ag2518    1.0  0.25000  0.14286  0.96429  1.0000
  Ag  Ag2519    1.0  0.25000  0.17857  0.92857  1.0000
  Ag  Ag2520    1.0  0.21429  0.21429  0.00000  1.0000
  Ag  Ag2521    1.0  0.21429  0.25000  0.03571  1.0000
  Ag  Ag2522    1.0  0.25000  0.21429  0.03571  1.0000
  Ag  Ag2523    1.0  0.25000  0.25000  0.00000  1.0000
  Ag  Ag2524    1.0  0.21429  0.21429  0.07143  1.0000
  Ag  Ag2525    1.0  0.21429  0.25000  0.10714  1.0000
  Ag  Ag2526    1.0  0.25000  0.21429  0.10714  1.0000
  Ag  Ag2527    1.0  0.25000  0.25000  0.07143  1.0000
  Ag  Ag2528    1.0  0.21429  0.21429  0.14286  1.0000
  Ag  Ag2529    1.0  0.21429  0.25000  0.17857  1.0000
  Ag  Ag2530    1.0  0.25000  0.21429  0.17857  1.0000
  Ag  Ag2531    1.0  0.25000  0.25000  0.14286  1.0000
  Ag  Ag2532    1.0  0.21429  0.21429  0.21429  1.0000
  Ag  Ag2533    1.0  0.21429  0.25000  0.25000  1.0000
  Ag  Ag2534    1.0  0.25000  0.21429  0.25000  1.0000
  Ag  Ag2535    1.0  0.25000  0.25000  0.21429  1.0000
  Ag  Ag2536    1.0  0.21429  0.21429  0.28571  1.0000
  Ag  Ag2537    1.0  0.21429  0.25000  0.32143  1.0000
  Ag  Ag2538    1.0  0.25000  0.21429  0.32143  1.0000
  Ag  Ag2539    1.0  0.25000  0.25000  0.28571  1.0000
  Ag  Ag2540    1.0  0.21429  0.21429  0.35714  1.0000
  Ag  Ag2541    1.0  0.21429  0.25000  0.39286  1.0000
  Ag  Ag2542    1.0  0.25000  0.21429  0.39286  1.0000
  Ag  Ag2543    1.0  0.25000  0.25000  0.35714  1.0000
  Ag  Ag2544    1.0  0.21429  0.21429  0.42857  1.0000
  Ag  Ag2545    1.0  0.21429  0.25000  0.46429  1.0000
  Ag  Ag2546    1.0  0.25000  0.21429  0.46429  1.0000
  Ag  Ag2547    1.0  0.25000  0.25000  0.42857  1.0000
  Ag  Ag2548    1.0  0.21429  0.21429  0.50000  1.0000
  Ag  Ag2549    1.0  0.21429  0.25000  0.53571  1.0000
  Ag  Ag2550    1.0  0.25000  0.21429  0.53571  1.0000
  Ag  Ag2551    1.0  0.25000  0.25000  0.50000  1.0000
  Ag  Ag2552    1.0  0.21429  0.21429  0.57143  1.0000
  Ag  Ag2553    1.0  0.21429  0.25000  0.60714  1.0000
  Ag  Ag2554    1.0  0.25000  0.21429  0.60714  1.0000
  Ag  Ag2555    1.0  0.25000  0.25000  0.57143  1.0000
  Ag  Ag2556    1.0  0.21429  0.21429  0.64286  1.0000
  Ag  Ag2557    1.0  0.21429  0.25000  0.67857  1.0000
  Ag  Ag2558    1.0  0.25000  0.21429  0.67857  1.0000
  Ag  Ag2559    1.0  0.25000  0.25000  0.64286  1.0000
  Ag  Ag2560    1.0  0.21429  0.21429  0.71429  1.0000
  Ag  Ag2561    1.0  0.21429  0.25000  0.75000  1.0000
  Ag  Ag2562    1.0  0.25000  0.21429  0.75000  1.0000
  Ag  Ag2563    1.0  0.25000  0.25000  0.71429  1.0000
  Ag  Ag2564    1.0  0.21429  0.21429  0.78571  1.0000
  Ag  Ag2565    1.0  0.21429  0.25000  0.82143  1.0000
  Ag  Ag2566    1.0  0.25000  0.21429  0.82143  1.0000
  Ag  Ag2567    1.0  0.25000  0.25000  0.78571  1.0000
  Ag  Ag2568    1.0  0.21429  0.21429  0.85714  1.0000
  Ag  Ag2569    1.0  0.21429  0.25000  0.89286  1.0000
  Ag  Ag2570    1.0  0.25000  0.21429  0.89286  1.0000
  Ag  Ag2571    1.0  0.25000  0.25000  0.85714  1.0000
  Ag  Ag2572    1.0  0.21429  0.21429  0.92857  1.0000
  Ag  Ag2573    1.0  0.21429  0.25000  0.96429  1.0000
  Ag  Ag2574    1.0  0.25000  0.21429  0.96429  1.0000
  Ag  Ag2575    1.0  0.25000  0.25000  0.92857  1.0000
  Ag  Ag2576    1.0  0.21429  0.28571  0.00000  1.0000
  Ag  Ag2577    1.0  0.21429  0.32143  0.03571  1.0000
  Ag  Ag2578    1.0  0.25000  0.28571  0.03571  1.0000
  Ag  Ag2579    1.0  0.25000  0.32143  0.00000  1.0000
  Ag  Ag2580    1.0  0.21429  0.28571  0.07143  1.0000
  Ag  Ag2581    1.0  0.21429  0.32143  0.10714  1.0000
  Ag  Ag2582    1.0  0.25000  0.28571  0.10714  1.0000
  Ag  Ag2583    1.0  0.25000  0.32143  0.07143  1.0000
  Ag  Ag2584    1.0  0.21429  0.28571  0.14286  1.0000
  Ag  Ag2585    1.0  0.21429  0.32143  0.17857  1.0000
  Ag  Ag2586    1.0  0.25000  0.28571  0.17857  1.0000
  Ag  Ag2587    1.0  0.25000  0.32143  0.14286  1.0000
  Ag  Ag2588    1.0  0.21429  0.28571  0.21429  1.0000
  Ag  Ag2589    1.0  0.21429  0.32143  0.25000  1.0000
  Ag  Ag2590    1.0  0.25000  0.28571  0.25000  1.0000
  Ag  Ag2591    1.0  0.25000  0.32143  0.21429  1.0000
  Ag  Ag2592    1.0  0.21429  0.28571  0.28571  1.0000
  Ag  Ag2593    1.0  0.21429  0.32143  0.32143  1.0000
  Ag  Ag2594    1.0  0.25000  0.28571  0.32143  1.0000
  Ag  Ag2595    1.0  0.25000  0.32143  0.28571  1.0000
  Ag  Ag2596    1.0  0.21429  0.28571  0.35714  1.0000
  Ag  Ag2597    1.0  0.21429  0.32143  0.39286  1.0000
  Ag  Ag2598    1.0  0.25000  0.28571  0.39286  1.0000
  Ag  Ag2599    1.0  0.25000  0.32143  0.35714  1.0000
  Ag  Ag2600    1.0  0.21429  0.28571  0.42857  1.0000
  Ag  Ag2601    1.0  0.21429  0.32143  0.46429  1.0000
  Ag  Ag2602    1.0  0.25000  0.28571  0.46429  1.0000
  Ag  Ag2603    1.0  0.25000  0.32143  0.42857  1.0000
  Ag  Ag2604    1.0  0.21429  0.28571  0.50000  1.0000
  Ag  Ag2605    1.0  0.21429  0.32143  0.53571  1.0000
  Ag  Ag2606    1.0  0.25000  0.28571  0.53571  1.0000
  Ag  Ag2607    1.0  0.25000  0.32143  0.50000  1.0000
  Ag  Ag2608    1.0  0.21429  0.28571  0.57143  1.0000
  Ag  Ag2609    1.0  0.21429  0.32143  0.60714  1.0000
  Ag  Ag2610    1.0  0.25000  0.28571  0.60714  1.0000
  Ag  Ag2611    1.0  0.25000  0.32143  0.57143  1.0000
  Ag  Ag2612    1.0  0.21429  0.28571  0.64286  1.0000
  Ag  Ag2613    1.0  0.21429  0.32143  0.67857  1.0000
  Ag  Ag2614    1.0  0.25000  0.28571  0.67857  1.0000
  Ag  Ag2615    1.0  0.25000  0.32143  0.64286  1.0000
  Ag  Ag2616    1.0  0.21429  0.28571  0.71429  1.0000
  Ag  Ag2617    1.0  0.21429  0.32143  0.75000  1.0000
  Ag  Ag2618    1.0  0.25000  0.28571  0.75000  1.0000
  Ag  Ag2619    1.0  0.25000  0.32143  0.71429  1.0000
  Ag  Ag2620    1.0  0.21429  0.28571  0.78571  1.0000
  Ag  Ag2621    1.0  0.21429  0.32143  0.82143  1.0000
  Ag  Ag2622    1.0  0.25000  0.28571  0.82143  1.0000
  Ag  Ag2623    1.0  0.25000  0.32143  0.78571  1.0000
  Ag  Ag2624    1.0  0.21429  0.28571  0.85714  1.0000
  Ag  Ag2625    1.0  0.21429  0.32143  0.89286  1.0000
  Ag  Ag2626    1.0  0.25000  0.28571  0.89286  1.0000
  Ag  Ag2627    1.0  0.25000  0.32143  0.85714  1.0000
  Ag  Ag2628    1.0  0.21429  0.28571  0.92857  1.0000
  Ag  Ag2629    1.0  0.21429  0.32143  0.96429  1.0000
  Ag  Ag2630    1.0  0.25000  0.28571  0.96429  1.0000
  Ag  Ag2631    1.0  0.25000  0.32143  0.92857  1.0000
  Ag  Ag2632    1.0  0.21429  0.35714  0.00000  1.0000
  Ag  Ag2633    1.0  0.21429  0.39286  0.03571  1.0000
  Ag  Ag2634    1.0  0.25000  0.35714  0.03571  1.0000
  Ag  Ag2635    1.0  0.25000  0.39286  0.00000  1.0000
  Ag  Ag2636    1.0  0.21429  0.35714  0.07143  1.0000
  Ag  Ag2637    1.0  0.21429  0.39286  0.10714  1.0000
  Ag  Ag2638    1.0  0.25000  0.35714  0.10714  1.0000
  Ag  Ag2639    1.0  0.25000  0.39286  0.07143  1.0000
  Ag  Ag2640    1.0  0.21429  0.35714  0.14286  1.0000
  Ag  Ag2641    1.0  0.21429  0.39286  0.17857  1.0000
  Ag  Ag2642    1.0  0.25000  0.35714  0.17857  1.0000
  Ag  Ag2643    1.0  0.25000  0.39286  0.14286  1.0000
  Ag  Ag2644    1.0  0.21429  0.35714  0.21429  1.0000
  Ag  Ag2645    1.0  0.21429  0.39286  0.25000  1.0000
  Ag  Ag2646    1.0  0.25000  0.35714  0.25000  1.0000
  Ag  Ag2647    1.0  0.25000  0.39286  0.21429  1.0000
  Ag  Ag2648    1.0  0.21429  0.35714  0.28571  1.0000
  Ag  Ag2649    1.0  0.21429  0.39286  0.32143  1.0000
  Ag  Ag2650    1.0  0.25000  0.35714  0.32143  1.0000
  Ag  Ag2651    1.0  0.25000  0.39286  0.28571  1.0000
  Ag  Ag2652    1.0  0.21429  0.35714  0.35714  1.0000
  Ag  Ag2653    1.0  0.21429  0.39286  0.39286  1.0000
  Ag  Ag2654    1.0  0.25000  0.35714  0.39286  1.0000
  Ag  Ag2655    1.0  0.25000  0.39286  0.35714  1.0000
  Ag  Ag2656    1.0  0.21429  0.35714  0.42857  1.0000
  Ag  Ag2657    1.0  0.21429  0.39286  0.46429  1.0000
  Ag  Ag2658    1.0  0.25000  0.35714  0.46429  1.0000
  Ag  Ag2659    1.0  0.25000  0.39286  0.42857  1.0000
  Ag  Ag2660    1.0  0.21429  0.35714  0.50000  1.0000
  Ag  Ag2661    1.0  0.21429  0.39286  0.53571  1.0000
  Ag  Ag2662    1.0  0.25000  0.35714  0.53571  1.0000
  Ag  Ag2663    1.0  0.25000  0.39286  0.50000  1.0000
  Ag  Ag2664    1.0  0.21429  0.35714  0.57143  1.0000
  Ag  Ag2665    1.0  0.21429  0.39286  0.60714  1.0000
  Ag  Ag2666    1.0  0.25000  0.35714  0.60714  1.0000
  Ag  Ag2667    1.0  0.25000  0.39286  0.57143  1.0000
  Ag  Ag2668    1.0  0.21429  0.35714  0.64286  1.0000
  Ag  Ag2669    1.0  0.21429  0.39286  0.67857  1.0000
  Ag  Ag2670    1.0  0.25000  0.35714  0.67857  1.0000
  Ag  Ag2671    1.0  0.25000  0.39286  0.64286  1.0000
  Ag  Ag2672    1.0  0.21429  0.35714  0.71429  1.0000
  Ag  Ag2673    1.0  0.21429  0.39286  0.75000  1.0000
  Ag  Ag2674    1.0  0.25000  0.35714  0.75000  1.0000
  Ag  Ag2675    1.0  0.25000  0.39286  0.71429  1.0000
  Ag  Ag2676    1.0  0.21429  0.35714  0.78571  1.0000
  Ag  Ag2677    1.0  0.21429  0.39286  0.82143  1.0000
  Ag  Ag2678    1.0  0.25000  0.35714  0.82143  1.0000
  Ag  Ag2679    1.0  0.25000  0.39286  0.78571  1.0000
  Ag  Ag2680    1.0  0.21429  0.35714  0.85714  1.0000
  Ag  Ag2681    1.0  0.21429  0.39286  0.89286  1.0000
  Ag  Ag2682    1.0  0.25000  0.35714  0.89286  1.0000
  Ag  Ag2683    1.0  0.25000  0.39286  0.85714  1.0000
  Ag  Ag2684    1.0  0.21429  0.35714  0.92857  1.0000
  Ag  Ag2685    1.0  0.21429  0.39286  0.96429  1.0000
  Ag  Ag2686    1.0  0.25000  0.35714  0.96429  1.0000
  Ag  Ag2687    1.0  0.25000  0.39286  0.92857  1.0000
  Ag  Ag2688    1.0  0.21429  0.42857  0.00000  1.0000
  Ag  Ag2689    1.0  0.21429  0.46429  0.03571  1.0000
  Ag  Ag2690    1.0  0.25000  0.42857  0.03571  1.0000
  Ag  Ag2691    1.0  0.25000  0.46429  0.00000  1.0000
  Ag  Ag2692    1.0  0.21429  0.42857  0.07143  1.0000
  Ag  Ag2693    1.0  0.21429  0.46429  0.10714  1.0000
  Ag  Ag2694    1.0  0.25000  0.42857  0.10714  1.0000
  Ag  Ag2695    1.0  0.25000  0.46429  0.07143  1.0000
  Ag  Ag2696    1.0  0.21429  0.42857  0.14286  1.0000
  Ag  Ag2697    1.0  0.21429  0.46429  0.17857  1.0000
  Ag  Ag2698    1.0  0.25000  0.42857  0.17857  1.0000
  Ag  Ag2699    1.0  0.25000  0.46429  0.14286  1.0000
  Ag  Ag2700    1.0  0.21429  0.42857  0.21429  1.0000
  Ag  Ag2701    1.0  0.21429  0.46429  0.25000  1.0000
  Ag  Ag2702    1.0  0.25000  0.42857  0.25000  1.0000
  Ag  Ag2703    1.0  0.25000  0.46429  0.21429  1.0000
  Ag  Ag2704    1.0  0.21429  0.42857  0.28571  1.0000
  Ag  Ag2705    1.0  0.21429  0.46429  0.32143  1.0000
  Ag  Ag2706    1.0  0.25000  0.42857  0.32143  1.0000
  Ag  Ag2707    1.0  0.25000  0.46429  0.28571  1.0000
  Ag  Ag2708    1.0  0.21429  0.42857  0.35714  1.0000
  Ag  Ag2709    1.0  0.21429  0.46429  0.39286  1.0000
  Ag  Ag2710    1.0  0.25000  0.42857  0.39286  1.0000
  Ag  Ag2711    1.0  0.25000  0.46429  0.35714  1.0000
  Ag  Ag2712    1.0  0.21429  0.42857  0.42857  1.0000
  Ag  Ag2713    1.0  0.21429  0.46429  0.46429  1.0000
  Ag  Ag2714    1.0  0.25000  0.42857  0.46429  1.0000
  Ag  Ag2715    1.0  0.25000  0.46429  0.42857  1.0000
  Ag  Ag2716    1.0  0.21429  0.42857  0.50000  1.0000
  Ag  Ag2717    1.0  0.21429  0.46429  0.53571  1.0000
  Ag  Ag2718    1.0  0.25000  0.42857  0.53571  1.0000
  Ag  Ag2719    1.0  0.25000  0.46429  0.50000  1.0000
  Ag  Ag2720    1.0  0.21429  0.42857  0.57143  1.0000
  Ag  Ag2721    1.0  0.21429  0.46429  0.60714  1.0000
  Ag  Ag2722    1.0  0.25000  0.42857  0.60714  1.0000
  Ag  Ag2723    1.0  0.25000  0.46429  0.57143  1.0000
  Ag  Ag2724    1.0  0.21429  0.42857  0.64286  1.0000
  Ag  Ag2725    1.0  0.21429  0.46429  0.67857  1.0000
  Ag  Ag2726    1.0  0.25000  0.42857  0.67857  1.0000
  Ag  Ag2727    1.0  0.25000  0.46429  0.64286  1.0000
  Ag  Ag2728    1.0  0.21429  0.42857  0.71429  1.0000
  Ag  Ag2729    1.0  0.21429  0.46429  0.75000  1.0000
  Ag  Ag2730    1.0  0.25000  0.42857  0.75000  1.0000
  Ag  Ag2731    1.0  0.25000  0.46429  0.71429  1.0000
  Ag  Ag2732    1.0  0.21429  0.42857  0.78571  1.0000
  Ag  Ag2733    1.0  0.21429  0.46429  0.82143  1.0000
  Ag  Ag2734    1.0  0.25000  0.42857  0.82143  1.0000
  Ag  Ag2735    1.0  0.25000  0.46429  0.78571  1.0000
  Ag  Ag2736    1.0  0.21429  0.42857  0.85714  1.0000
  Ag  Ag2737    1.0  0.21429  0.46429  0.89286  1.0000
  Ag  Ag2738    1.0  0.25000  0.42857  0.89286  1.0000
  Ag  Ag2739    1.0  0.25000  0.46429  0.85714  1.0000
  Ag  Ag2740    1.0  0.21429  0.42857  0.92857  1.0000
  Ag  Ag2741    1.0  0.21429  0.46429  0.96429  1.0000
  Ag  Ag2742    1.0  0.25000  0.42857  0.96429  1.0000
  Ag  Ag2743    1.0  0.25000  0.46429  0.92857  1.0000
  Ag  Ag2744    1.0  0.21429  0.50000  0.00000  1.0000
  Ag  Ag2745    1.0  0.21429  0.53571  0.03571  1.0000
  Ag  Ag2746    1.0  0.25000  0.50000  0.03571  1.0000
  Ag  Ag2747    1.0  0.25000  0.53571  0.00000  1.0000
  Ag  Ag2748    1.0  0.21429  0.50000  0.07143  1.0000
  Ag  Ag2749    1.0  0.21429  0.53571  0.10714  1.0000
  Ag  Ag2750    1.0  0.25000  0.50000  0.10714  1.0000
  Ag  Ag2751    1.0  0.25000  0.53571  0.07143  1.0000
  Ag  Ag2752    1.0  0.21429  0.50000  0.14286  1.0000
  Ag  Ag2753    1.0  0.21429  0.53571  0.17857  1.0000
  Ag  Ag2754    1.0  0.25000  0.50000  0.17857  1.0000
  Ag  Ag2755    1.0  0.25000  0.53571  0.14286  1.0000
  Ag  Ag2756    1.0  0.21429  0.50000  0.21429  1.0000
  Ag  Ag2757    1.0  0.21429  0.53571  0.25000  1.0000
  Ag  Ag2758    1.0  0.25000  0.50000  0.25000  1.0000
  Ag  Ag2759    1.0  0.25000  0.53571  0.21429  1.0000
  Ag  Ag2760    1.0  0.21429  0.50000  0.28571  1.0000
  Ag  Ag2761    1.0  0.21429  0.53571  0.32143  1.0000
  Ag  Ag2762    1.0  0.25000  0.50000  0.32143  1.0000
  Ag  Ag2763    1.0  0.25000  0.53571  0.28571  1.0000
  Ag  Ag2764    1.0  0.21429  0.50000  0.35714  1.0000
  Ag  Ag2765    1.0  0.21429  0.53571  0.39286  1.0000
  Ag  Ag2766    1.0  0.25000  0.50000  0.39286  1.0000
  Ag  Ag2767    1.0  0.25000  0.53571  0.35714  1.0000
  Ag  Ag2768    1.0  0.21429  0.50000  0.42857  1.0000
  Ag  Ag2769    1.0  0.21429  0.53571  0.46429  1.0000
  Ag  Ag2770    1.0  0.25000  0.50000  0.46429  1.0000
  Ag  Ag2771    1.0  0.25000  0.53571  0.42857  1.0000
  Ag  Ag2772    1.0  0.21429  0.50000  0.50000  1.0000
  Ag  Ag2773    1.0  0.21429  0.53571  0.53571  1.0000
  Ag  Ag2774    1.0  0.25000  0.50000  0.53571  1.0000
  Ag  Ag2775    1.0  0.25000  0.53571  0.50000  1.0000
  Ag  Ag2776    1.0  0.21429  0.50000  0.57143  1.0000
  Ag  Ag2777    1.0  0.21429  0.53571  0.60714  1.0000
  Ag  Ag2778    1.0  0.25000  0.50000  0.60714  1.0000
  Ag  Ag2779    1.0  0.25000  0.53571  0.57143  1.0000
  Ag  Ag2780    1.0  0.21429  0.50000  0.64286  1.0000
  Ag  Ag2781    1.0  0.21429  0.53571  0.67857  1.0000
  Ag  Ag2782    1.0  0.25000  0.50000  0.67857  1.0000
  Ag  Ag2783    1.0  0.25000  0.53571  0.64286  1.0000
  Ag  Ag2784    1.0  0.21429  0.50000  0.71429  1.0000
  Ag  Ag2785    1.0  0.21429  0.53571  0.75000  1.0000
  Ag  Ag2786    1.0  0.25000  0.50000  0.75000  1.0000
  Ag  Ag2787    1.0  0.25000  0.53571  0.71429  1.0000
  Ag  Ag2788    1.0  0.21429  0.50000  0.78571  1.0000
  Ag  Ag2789    1.0  0.21429  0.53571  0.82143  1.0000
  Ag  Ag2790    1.0  0.25000  0.50000  0.82143  1.0000
  Ag  Ag2791    1.0  0.25000  0.53571  0.78571  1.0000
  Ag  Ag2792    1.0  0.21429  0.50000  0.85714  1.0000
  Ag  Ag2793    1.0  0.21429  0.53571  0.89286  1.0000
  Ag  Ag2794    1.0  0.25000  0.50000  0.89286  1.0000
  Ag  Ag2795    1.0  0.25000  0.53571  0.85714  1.0000
  Ag  Ag2796    1.0  0.21429  0.50000  0.92857  1.0000
  Ag  Ag2797    1.0  0.21429  0.53571  0.96429  1.0000
  Ag  Ag2798    1.0  0.25000  0.50000  0.96429  1.0000
  Ag  Ag2799    1.0  0.25000  0.53571  0.92857  1.0000
  Ag  Ag2800    1.0  0.21429  0.57143  0.00000  1.0000
  Ag  Ag2801    1.0  0.21429  0.60714  0.03571  1.0000
  Ag  Ag2802    1.0  0.25000  0.57143  0.03571  1.0000
  Ag  Ag2803    1.0  0.25000  0.60714  0.00000  1.0000
  Ag  Ag2804    1.0  0.21429  0.57143  0.07143  1.0000
  Ag  Ag2805    1.0  0.21429  0.60714  0.10714  1.0000
  Ag  Ag2806    1.0  0.25000  0.57143  0.10714  1.0000
  Ag  Ag2807    1.0  0.25000  0.60714  0.07143  1.0000
  Ag  Ag2808    1.0  0.21429  0.57143  0.14286  1.0000
  Ag  Ag2809    1.0  0.21429  0.60714  0.17857  1.0000
  Ag  Ag2810    1.0  0.25000  0.57143  0.17857  1.0000
  Ag  Ag2811    1.0  0.25000  0.60714  0.14286  1.0000
  Ag  Ag2812    1.0  0.21429  0.57143  0.21429  1.0000
  Ag  Ag2813    1.0  0.21429  0.60714  0.25000  1.0000
  Ag  Ag2814    1.0  0.25000  0.57143  0.25000  1.0000
  Ag  Ag2815    1.0  0.25000  0.60714  0.21429  1.0000
  Ag  Ag2816    1.0  0.21429  0.57143  0.28571  1.0000
  Ag  Ag2817    1.0  0.21429  0.60714  0.32143  1.0000
  Ag  Ag2818    1.0  0.25000  0.57143  0.32143  1.0000
  Ag  Ag2819    1.0  0.25000  0.60714  0.28571  1.0000
  Ag  Ag2820    1.0  0.21429  0.57143  0.35714  1.0000
  Ag  Ag2821    1.0  0.21429  0.60714  0.39286  1.0000
  Ag  Ag2822    1.0  0.25000  0.57143  0.39286  1.0000
  Ag  Ag2823    1.0  0.25000  0.60714  0.35714  1.0000
  Ag  Ag2824    1.0  0.21429  0.57143  0.42857  1.0000
  Ag  Ag2825    1.0  0.21429  0.60714  0.46429  1.0000
  Ag  Ag2826    1.0  0.25000  0.57143  0.46429  1.0000
  Ag  Ag2827    1.0  0.25000  0.60714  0.42857  1.0000
  Ag  Ag2828    1.0  0.21429  0.57143  0.50000  1.0000
  Ag  Ag2829    1.0  0.21429  0.60714  0.53571  1.0000
  Ag  Ag2830    1.0  0.25000  0.57143  0.53571  1.0000
  Ag  Ag2831    1.0  0.25000  0.60714  0.50000  1.0000
  Ag  Ag2832    1.0  0.21429  0.57143  0.57143  1.0000
  Ag  Ag2833    1.0  0.21429  0.60714  0.60714  1.0000
  Ag  Ag2834    1.0  0.25000  0.57143  0.60714  1.0000
  Ag  Ag2835    1.0  0.25000  0.60714  0.57143  1.0000
  Ag  Ag2836    1.0  0.21429  0.57143  0.64286  1.0000
  Ag  Ag2837    1.0  0.21429  0.60714  0.67857  1.0000
  Ag  Ag2838    1.0  0.25000  0.57143  0.67857  1.0000
  Ag  Ag2839    1.0  0.25000  0.60714  0.64286  1.0000
  Ag  Ag2840    1.0  0.21429  0.57143  0.71429  1.0000
  Ag  Ag2841    1.0  0.21429  0.60714  0.75000  1.0000
  Ag  Ag2842    1.0  0.25000  0.57143  0.75000  1.0000
  Ag  Ag2843    1.0  0.25000  0.60714  0.71429  1.0000
  Ag  Ag2844    1.0  0.21429  0.57143  0.78571  1.0000
  Ag  Ag2845    1.0  0.21429  0.60714  0.82143  1.0000
  Ag  Ag2846    1.0  0.25000  0.57143  0.82143  1.0000
  Ag  Ag2847    1.0  0.25000  0.60714  0.78571  1.0000
  Ag  Ag2848    1.0  0.21429  0.57143  0.85714  1.0000
  Ag  Ag2849    1.0  0.21429  0.60714  0.89286  1.0000
  Ag  Ag2850    1.0  0.25000  0.57143  0.89286  1.0000
  Ag  Ag2851    1.0  0.25000  0.60714  0.85714  1.0000
  Ag  Ag2852    1.0  0.21429  0.57143  0.92857  1.0000
  Ag  Ag2853    1.0  0.21429  0.60714  0.96429  1.0000
  Ag  Ag2854    1.0  0.25000  0.57143  0.96429  1.0000
  Ag  Ag2855    1.0  0.25000  0.60714  0.92857  1.0000
  Ag  Ag2856    1.0  0.21429  0.64286  0.00000  1.0000
  Ag  Ag2857    1.0  0.21429  0.67857  0.03571  1.0000
  Ag  Ag2858    1.0  0.25000  0.64286  0.03571  1.0000
  Ag  Ag2859    1.0  0.25000  0.67857  0.00000  1.0000
  Ag  Ag2860    1.0  0.21429  0.64286  0.07143  1.0000
  Ag  Ag2861    1.0  0.21429  0.67857  0.10714  1.0000
  Ag  Ag2862    1.0  0.25000  0.64286  0.10714  1.0000
  Ag  Ag2863    1.0  0.25000  0.67857  0.07143  1.0000
  Ag  Ag2864    1.0  0.21429  0.64286  0.14286  1.0000
  Ag  Ag2865    1.0  0.21429  0.67857  0.17857  1.0000
  Ag  Ag2866    1.0  0.25000  0.64286  0.17857  1.0000
  Ag  Ag2867    1.0  0.25000  0.67857  0.14286  1.0000
  Ag  Ag2868    1.0  0.21429  0.64286  0.21429  1.0000
  Ag  Ag2869    1.0  0.21429  0.67857  0.25000  1.0000
  Ag  Ag2870    1.0  0.25000  0.64286  0.25000  1.0000
  Ag  Ag2871    1.0  0.25000  0.67857  0.21429  1.0000
  Ag  Ag2872    1.0  0.21429  0.64286  0.28571  1.0000
  Ag  Ag2873    1.0  0.21429  0.67857  0.32143  1.0000
  Ag  Ag2874    1.0  0.25000  0.64286  0.32143  1.0000
  Ag  Ag2875    1.0  0.25000  0.67857  0.28571  1.0000
  Ag  Ag2876    1.0  0.21429  0.64286  0.35714  1.0000
  Ag  Ag2877    1.0  0.21429  0.67857  0.39286  1.0000
  Ag  Ag2878    1.0  0.25000  0.64286  0.39286  1.0000
  Ag  Ag2879    1.0  0.25000  0.67857  0.35714  1.0000
  Ag  Ag2880    1.0  0.21429  0.64286  0.42857  1.0000
  Ag  Ag2881    1.0  0.21429  0.67857  0.46429  1.0000
  Ag  Ag2882    1.0  0.25000  0.64286  0.46429  1.0000
  Ag  Ag2883    1.0  0.25000  0.67857  0.42857  1.0000
  Ag  Ag2884    1.0  0.21429  0.64286  0.50000  1.0000
  Ag  Ag2885    1.0  0.21429  0.67857  0.53571  1.0000
  Ag  Ag2886    1.0  0.25000  0.64286  0.53571  1.0000
  Ag  Ag2887    1.0  0.25000  0.67857  0.50000  1.0000
  Ag  Ag2888    1.0  0.21429  0.64286  0.57143  1.0000
  Ag  Ag2889    1.0  0.21429  0.67857  0.60714  1.0000
  Ag  Ag2890    1.0  0.25000  0.64286  0.60714  1.0000
  Ag  Ag2891    1.0  0.25000  0.67857  0.57143  1.0000
  Ag  Ag2892    1.0  0.21429  0.64286  0.64286  1.0000
  Ag  Ag2893    1.0  0.21429  0.67857  0.67857  1.0000
  Ag  Ag2894    1.0  0.25000  0.64286  0.67857  1.0000
  Ag  Ag2895    1.0  0.25000  0.67857  0.64286  1.0000
  Ag  Ag2896    1.0  0.21429  0.64286  0.71429  1.0000
  Ag  Ag2897    1.0  0.21429  0.67857  0.75000  1.0000
  Ag  Ag2898    1.0  0.25000  0.64286  0.75000  1.0000
  Ag  Ag2899    1.0  0.25000  0.67857  0.71429  1.0000
  Ag  Ag2900    1.0  0.21429  0.64286  0.78571  1.0000
  Ag  Ag2901    1.0  0.21429  0.67857  0.82143  1.0000
  Ag  Ag2902    1.0  0.25000  0.64286  0.82143  1.0000
  Ag  Ag2903    1.0  0.25000  0.67857  0.78571  1.0000
  Ag  Ag2904    1.0  0.21429  0.64286  0.85714  1.0000
  Ag  Ag2905    1.0  0.21429  0.67857  0.89286  1.0000
  Ag  Ag2906    1.0  0.25000  0.64286  0.89286  1.0000
  Ag  Ag2907    1.0  0.25000  0.67857  0.85714  1.0000
  Ag  Ag2908    1.0  0.21429  0.64286  0.92857  1.0000
  Ag  Ag2909    1.0  0.21429  0.67857  0.96429  1.0000
  Ag  Ag2910    1.0  0.25000  0.64286  0.96429  1.0000
  Ag  Ag2911    1.0  0.25000  0.67857  0.92857  1.0000
  Ag  Ag2912    1.0  0.21429  0.71429  0.00000  1.0000
  Ag  Ag2913    1.0  0.21429  0.75000  0.03571  1.0000
  Ag  Ag2914    1.0  0.25000  0.71429  0.03571  1.0000
  Ag  Ag2915    1.0  0.25000  0.75000  0.00000  1.0000
  Ag  Ag2916    1.0  0.21429  0.71429  0.07143  1.0000
  Ag  Ag2917    1.0  0.21429  0.75000  0.10714  1.0000
  Ag  Ag2918    1.0  0.25000  0.71429  0.10714  1.0000
  Ag  Ag2919    1.0  0.25000  0.75000  0.07143  1.0000
  Ag  Ag2920    1.0  0.21429  0.71429  0.14286  1.0000
  Ag  Ag2921    1.0  0.21429  0.75000  0.17857  1.0000
  Ag  Ag2922    1.0  0.25000  0.71429  0.17857  1.0000
  Ag  Ag2923    1.0  0.25000  0.75000  0.14286  1.0000
  Ag  Ag2924    1.0  0.21429  0.71429  0.21429  1.0000
  Ag  Ag2925    1.0  0.21429  0.75000  0.25000  1.0000
  Ag  Ag2926    1.0  0.25000  0.71429  0.25000  1.0000
  Ag  Ag2927    1.0  0.25000  0.75000  0.21429  1.0000
  Ag  Ag2928    1.0  0.21429  0.71429  0.28571  1.0000
  Ag  Ag2929    1.0  0.21429  0.75000  0.32143  1.0000
  Ag  Ag2930    1.0  0.25000  0.71429  0.32143  1.0000
  Ag  Ag2931    1.0  0.25000  0.75000  0.28571  1.0000
  Ag  Ag2932    1.0  0.21429  0.71429  0.35714  1.0000
  Ag  Ag2933    1.0  0.21429  0.75000  0.39286  1.0000
  Ag  Ag2934    1.0  0.25000  0.71429  0.39286  1.0000
  Ag  Ag2935    1.0  0.25000  0.75000  0.35714  1.0000
  Ag  Ag2936    1.0  0.21429  0.71429  0.42857  1.0000
  Ag  Ag2937    1.0  0.21429  0.75000  0.46429  1.0000
  Ag  Ag2938    1.0  0.25000  0.71429  0.46429  1.0000
  Ag  Ag2939    1.0  0.25000  0.75000  0.42857  1.0000
  Ag  Ag2940    1.0  0.21429  0.71429  0.50000  1.0000
  Ag  Ag2941    1.0  0.21429  0.75000  0.53571  1.0000
  Ag  Ag2942    1.0  0.25000  0.71429  0.53571  1.0000
  Ag  Ag2943    1.0  0.25000  0.75000  0.50000  1.0000
  Ag  Ag2944    1.0  0.21429  0.71429  0.57143  1.0000
  Ag  Ag2945    1.0  0.21429  0.75000  0.60714  1.0000
  Ag  Ag2946    1.0  0.25000  0.71429  0.60714  1.0000
  Ag  Ag2947    1.0  0.25000  0.75000  0.57143  1.0000
  Ag  Ag2948    1.0  0.21429  0.71429  0.64286  1.0000
  Ag  Ag2949    1.0  0.21429  0.75000  0.67857  1.0000
  Ag  Ag2950    1.0  0.25000  0.71429  0.67857  1.0000
  Ag  Ag2951    1.0  0.25000  0.75000  0.64286  1.0000
  Ag  Ag2952    1.0  0.21429  0.71429  0.71429  1.0000
  Ag  Ag2953    1.0  0.21429  0.75000  0.75000  1.0000
  Ag  Ag2954    1.0  0.25000  0.71429  0.75000  1.0000
  Ag  Ag2955    1.0  0.25000  0.75000  0.71429  1.0000
  Ag  Ag2956    1.0  0.21429  0.71429  0.78571  1.0000
  Ag  Ag2957    1.0  0.21429  0.75000  0.82143  1.0000
  Ag  Ag2958    1.0  0.25000  0.71429  0.82143  1.0000
  Ag  Ag2959    1.0  0.25000  0.75000  0.78571  1.0000
  Ag  Ag2960    1.0  0.21429  0.71429  0.85714  1.0000
  Ag  Ag2961    1.0  0.21429  0.75000  0.89286  1.0000
  Ag  Ag2962    1.0  0.25000  0.71429  0.89286  1.0000
  Ag  Ag2963    1.0  0.25000  0.75000  0.85714  1.0000
  Ag  Ag2964    1.0  0.21429  0.71429  0.92857  1.0000
  Ag  Ag2965    1.0  0.21429  0.75000  0.96429  1.0000
  Ag  Ag2966    1.0  0.25000  0.71429  0.96429  1.0000
  Ag  Ag2967    1.0  0.25000  0.75000  0.92857  1.0000
  Ag  Ag2968    1.0  0.21429  0.78571  0.00000  1.0000
  Ag  Ag2969    1.0  0.21429  0.82143  0.03571  1.0000
  Ag  Ag2970    1.0  0.25000  0.78571  0.03571  1.0000
  Ag  Ag2971    1.0  0.25000  0.82143  0.00000  1.0000
  Ag  Ag2972    1.0  0.21429  0.78571  0.07143  1.0000
  Ag  Ag2973    1.0  0.21429  0.82143  0.10714  1.0000
  Ag  Ag2974    1.0  0.25000  0.78571  0.10714  1.0000
  Ag  Ag2975    1.0  0.25000  0.82143  0.07143  1.0000
  Ag  Ag2976    1.0  0.21429  0.78571  0.14286  1.0000
  Ag  Ag2977    1.0  0.21429  0.82143  0.17857  1.0000
  Ag  Ag2978    1.0  0.25000  0.78571  0.17857  1.0000
  Ag  Ag2979    1.0  0.25000  0.82143  0.14286  1.0000
  Ag  Ag2980    1.0  0.21429  0.78571  0.21429  1.0000
  Ag  Ag2981    1.0  0.21429  0.82143  0.25000  1.0000
  Ag  Ag2982    1.0  0.25000  0.78571  0.25000  1.0000
  Ag  Ag2983    1.0  0.25000  0.82143  0.21429  1.0000
  Ag  Ag2984    1.0  0.21429  0.78571  0.28571  1.0000
  Ag  Ag2985    1.0  0.21429  0.82143  0.32143  1.0000
  Ag  Ag2986    1.0  0.25000  0.78571  0.32143  1.0000
  Ag  Ag2987    1.0  0.25000  0.82143  0.28571  1.0000
  Ag  Ag2988    1.0  0.21429  0.78571  0.35714  1.0000
  Ag  Ag2989    1.0  0.21429  0.82143  0.39286  1.0000
  Ag  Ag2990    1.0  0.25000  0.78571  0.39286  1.0000
  Ag  Ag2991    1.0  0.25000  0.82143  0.35714  1.0000
  Ag  Ag2992    1.0  0.21429  0.78571  0.42857  1.0000
  Ag  Ag2993    1.0  0.21429  0.82143  0.46429  1.0000
  Ag  Ag2994    1.0  0.25000  0.78571  0.46429  1.0000
  Ag  Ag2995    1.0  0.25000  0.82143  0.42857  1.0000
  Ag  Ag2996    1.0  0.21429  0.78571  0.50000  1.0000
  Ag  Ag2997    1.0  0.21429  0.82143  0.53571  1.0000
  Ag  Ag2998    1.0  0.25000  0.78571  0.53571  1.0000
  Ag  Ag2999    1.0  0.25000  0.82143  0.50000  1.0000
  Ag  Ag3000    1.0  0.21429  0.78571  0.57143  1.0000
  Ag  Ag3001    1.0  0.21429  0.82143  0.60714  1.0000
  Ag  Ag3002    1.0  0.25000  0.78571  0.60714  1.0000
  Ag  Ag3003    1.0  0.25000  0.82143  0.57143  1.0000
  Ag  Ag3004    1.0  0.21429  0.78571  0.64286  1.0000
  Ag  Ag3005    1.0  0.21429  0.82143  0.67857  1.0000
  Ag  Ag3006    1.0  0.25000  0.78571  0.67857  1.0000
  Ag  Ag3007    1.0  0.25000  0.82143  0.64286  1.0000
  Ag  Ag3008    1.0  0.21429  0.78571  0.71429  1.0000
  Ag  Ag3009    1.0  0.21429  0.82143  0.75000  1.0000
  Ag  Ag3010    1.0  0.25000  0.78571  0.75000  1.0000
  Ag  Ag3011    1.0  0.25000  0.82143  0.71429  1.0000
  Ag  Ag3012    1.0  0.21429  0.78571  0.78571  1.0000
  Ag  Ag3013    1.0  0.21429  0.82143  0.82143  1.0000
  Ag  Ag3014    1.0  0.25000  0.78571  0.82143  1.0000
  Ag  Ag3015    1.0  0.25000  0.82143  0.78571  1.0000
  Ag  Ag3016    1.0  0.21429  0.78571  0.85714  1.0000
  Ag  Ag3017    1.0  0.21429  0.82143  0.89286  1.0000
  Ag  Ag3018    1.0  0.25000  0.78571  0.89286  1.0000
  Ag  Ag3019    1.0  0.25000  0.82143  0.85714  1.0000
  Ag  Ag3020    1.0  0.21429  0.78571  0.92857  1.0000
  Ag  Ag3021    1.0  0.21429  0.82143  0.96429  1.0000
  Ag  Ag3022    1.0  0.25000  0.78571  0.96429  1.0000
  Ag  Ag3023    1.0  0.25000  0.82143  0.92857  1.0000
  Ag  Ag3024    1.0  0.21429  0.85714  0.00000  1.0000
  Ag  Ag3025    1.0  0.21429  0.89286  0.03571  1.0000
  Ag  Ag3026    1.0  0.25000  0.85714  0.03571  1.0000
  Ag  Ag3027    1.0  0.25000  0.89286  0.00000  1.0000
  Ag  Ag3028    1.0  0.21429  0.85714  0.07143  1.0000
  Ag  Ag3029    1.0  0.21429  0.89286  0.10714  1.0000
  Ag  Ag3030    1.0  0.25000  0.85714  0.10714  1.0000
  Ag  Ag3031    1.0  0.25000  0.89286  0.07143  1.0000
  Ag  Ag3032    1.0  0.21429  0.85714  0.14286  1.0000
  Ag  Ag3033    1.0  0.21429  0.89286  0.17857  1.0000
  Ag  Ag3034    1.0  0.25000  0.85714  0.17857  1.0000
  Ag  Ag3035    1.0  0.25000  0.89286  0.14286  1.0000
  Ag  Ag3036    1.0  0.21429  0.85714  0.21429  1.0000
  Ag  Ag3037    1.0  0.21429  0.89286  0.25000  1.0000
  Ag  Ag3038    1.0  0.25000  0.85714  0.25000  1.0000
  Ag  Ag3039    1.0  0.25000  0.89286  0.21429  1.0000
  Ag  Ag3040    1.0  0.21429  0.85714  0.28571  1.0000
  Ag  Ag3041    1.0  0.21429  0.89286  0.32143  1.0000
  Ag  Ag3042    1.0  0.25000  0.85714  0.32143  1.0000
  Ag  Ag3043    1.0  0.25000  0.89286  0.28571  1.0000
  Ag  Ag3044    1.0  0.21429  0.85714  0.35714  1.0000
  Ag  Ag3045    1.0  0.21429  0.89286  0.39286  1.0000
  Ag  Ag3046    1.0  0.25000  0.85714  0.39286  1.0000
  Ag  Ag3047    1.0  0.25000  0.89286  0.35714  1.0000
  Ag  Ag3048    1.0  0.21429  0.85714  0.42857  1.0000
  Ag  Ag3049    1.0  0.21429  0.89286  0.46429  1.0000
  Ag  Ag3050    1.0  0.25000  0.85714  0.46429  1.0000
  Ag  Ag3051    1.0  0.25000  0.89286  0.42857  1.0000
  Ag  Ag3052    1.0  0.21429  0.85714  0.50000  1.0000
  Ag  Ag3053    1.0  0.21429  0.89286  0.53571  1.0000
  Ag  Ag3054    1.0  0.25000  0.85714  0.53571  1.0000
  Ag  Ag3055    1.0  0.25000  0.89286  0.50000  1.0000
  Ag  Ag3056    1.0  0.21429  0.85714  0.57143  1.0000
  Ag  Ag3057    1.0  0.21429  0.89286  0.60714  1.0000
  Ag  Ag3058    1.0  0.25000  0.85714  0.60714  1.0000
  Ag  Ag3059    1.0  0.25000  0.89286  0.57143  1.0000
  Ag  Ag3060    1.0  0.21429  0.85714  0.64286  1.0000
  Ag  Ag3061    1.0  0.21429  0.89286  0.67857  1.0000
  Ag  Ag3062    1.0  0.25000  0.85714  0.67857  1.0000
  Ag  Ag3063    1.0  0.25000  0.89286  0.64286  1.0000
  Ag  Ag3064    1.0  0.21429  0.85714  0.71429  1.0000
  Ag  Ag3065    1.0  0.21429  0.89286  0.75000  1.0000
  Ag  Ag3066    1.0  0.25000  0.85714  0.75000  1.0000
  Ag  Ag3067    1.0  0.25000  0.89286  0.71429  1.0000
  Ag  Ag3068    1.0  0.21429  0.85714  0.78571  1.0000
  Ag  Ag3069    1.0  0.21429  0.89286  0.82143  1.0000
  Ag  Ag3070    1.0  0.25000  0.85714  0.82143  1.0000
  Ag  Ag3071    1.0  0.25000  0.89286  0.78571  1.0000
  Ag  Ag3072    1.0  0.21429  0.85714  0.85714  1.0000
  Ag  Ag3073    1.0  0.21429  0.89286  0.89286  1.0000
  Ag  Ag3074    1.0  0.25000  0.85714  0.89286  1.0000
  Ag  Ag3075    1.0  0.25000  0.89286  0.85714  1.0000
  Ag  Ag3076    1.0  0.21429  0.85714  0.92857  1.0000
  Ag  Ag3077    1.0  0.21429  0.89286  0.96429  1.0000
  Ag  Ag3078    1.0  0.25000  0.85714  0.96429  1.0000
  Ag  Ag3079    1.0  0.25000  0.89286  0.92857  1.0000
  Ag  Ag3080    1.0  0.21429  0.92857  0.00000  1.0000
  Ag  Ag3081    1.0  0.21429  0.96429  0.03571  1.0000
  Ag  Ag3082    1.0  0.25000  0.92857  0.03571  1.0000
  Ag  Ag3083    1.0  0.25000  0.96429  0.00000  1.0000
  Ag  Ag3084    1.0  0.21429  0.92857  0.07143  1.0000
  Ag  Ag3085    1.0  0.21429  0.96429  0.10714  1.0000
  Ag  Ag3086    1.0  0.25000  0.92857  0.10714  1.0000
  Ag  Ag3087    1.0  0.25000  0.96429  0.07143  1.0000
  Ag  Ag3088    1.0  0.21429  0.92857  0.14286  1.0000
  Ag  Ag3089    1.0  0.21429  0.96429  0.17857  1.0000
  Ag  Ag3090    1.0  0.25000  0.92857  0.17857  1.0000
  Ag  Ag3091    1.0  0.25000  0.96429  0.14286  1.0000
  Ag  Ag3092    1.0  0.21429  0.92857  0.21429  1.0000
  Ag  Ag3093    1.0  0.21429  0.96429  0.25000  1.0000
  Ag  Ag3094    1.0  0.25000  0.92857  0.25000  1.0000
  Ag  Ag3095    1.0  0.25000  0.96429  0.21429  1.0000
  Ag  Ag3096    1.0  0.21429  0.92857  0.28571  1.0000
  Ag  Ag3097    1.0  0.21429  0.96429  0.32143  1.0000
  Ag  Ag3098    1.0  0.25000  0.92857  0.32143  1.0000
  Ag  Ag3099    1.0  0.25000  0.96429  0.28571  1.0000
  Ag  Ag3100    1.0  0.21429  0.92857  0.35714  1.0000
  Ag  Ag3101    1.0  0.21429  0.96429  0.39286  1.0000
  Ag  Ag3102    1.0  0.25000  0.92857  0.39286  1.0000
  Ag  Ag3103    1.0  0.25000  0.96429  0.35714  1.0000
  Ag  Ag3104    1.0  0.21429  0.92857  0.42857  1.0000
  Ag  Ag3105    1.0  0.21429  0.96429  0.46429  1.0000
  Ag  Ag3106    1.0  0.25000  0.92857  0.46429  1.0000
  Ag  Ag3107    1.0  0.25000  0.96429  0.42857  1.0000
  Ag  Ag3108    1.0  0.21429  0.92857  0.50000  1.0000
  Ag  Ag3109    1.0  0.21429  0.96429  0.53571  1.0000
  Ag  Ag3110    1.0  0.25000  0.92857  0.53571  1.0000
  Ag  Ag3111    1.0  0.25000  0.96429  0.50000  1.0000
  Ag  Ag3112    1.0  0.21429  0.92857  0.57143  1.0000
  Ag  Ag3113    1.0  0.21429  0.96429  0.60714  1.0000
  Ag  Ag3114    1.0  0.25000  0.92857  0.60714  1.0000
  Ag  Ag3115    1.0  0.25000  0.96429  0.57143  1.0000
  Ag  Ag3116    1.0  0.21429  0.92857  0.64286  1.0000
  Ag  Ag3117    1.0  0.21429  0.96429  0.67857  1.0000
  Ag  Ag3118    1.0  0.25000  0.92857  0.67857  1.0000
  Ag  Ag3119    1.0  0.25000  0.96429  0.64286  1.0000
  Ag  Ag3120    1.0  0.21429  0.92857  0.71429  1.0000
  Ag  Ag3121    1.0  0.21429  0.96429  0.75000  1.0000
  Ag  Ag3122    1.0  0.25000  0.92857  0.75000  1.0000
  Ag  Ag3123    1.0  0.25000  0.96429  0.71429  1.0000
  Ag  Ag3124    1.0  0.21429  0.92857  0.78571  1.0000
  Ag  Ag3125    1.0  0.21429  0.96429  0.82143  1.0000
  Ag  Ag3126    1.0  0.25000  0.92857  0.82143  1.0000
  Ag  Ag3127    1.0  0.25000  0.96429  0.78571  1.0000
  Ag  Ag3128    1.0  0.21429  0.92857  0.85714  1.0000
  Ag  Ag3129    1.0  0.21429  0.96429  0.89286  1.0000
  Ag  Ag3130    1.0  0.25000  0.92857  0.89286  1.0000
  Ag  Ag3131    1.0  0.25000  0.96429  0.85714  1.0000
  Ag  Ag3132    1.0  0.21429  0.92857  0.92857  1.0000
  Ag  Ag3133    1.0  0.21429  0.96429  0.96429  1.0000
  Ag  Ag3134    1.0  0.25000  0.92857  0.96429  1.0000
  Ag  Ag3135    1.0  0.25000  0.96429  0.92857  1.0000
  Ag  Ag3136    1.0  0.28571  0.00000  0.00000  1.0000
  Ag  Ag3137    1.0  0.28571  0.03571  0.03571  1.0000
  Ag  Ag3138    1.0  0.32143  0.00000  0.03571  1.0000
  Ag  Ag3139    1.0  0.32143  0.03571  0.00000  1.0000
  Ag  Ag3140    1.0  0.28571  0.00000  0.07143  1.0000
  Ag  Ag3141    1.0  0.28571  0.03571  0.10714  1.0000
  Ag  Ag3142    1.0  0.32143  0.00000  0.10714  1.0000
  Ag  Ag3143    1.0  0.32143  0.03571  0.07143  1.0000
  Ag  Ag3144    1.0  0.28571  0.00000  0.14286  1.0000
  Ag  Ag3145    1.0  0.28571  0.03571  0.17857  1.0000
  Ag  Ag3146    1.0  0.32143  0.00000  0.17857  1.0000
  Ag  Ag3147    1.0  0.32143  0.03571  0.14286  1.0000
  Ag  Ag3148    1.0  0.28571  0.00000  0.21429  1.0000
  Ag  Ag3149    1.0  0.28571  0.03571  0.25000  1.0000
  Ag  Ag3150    1.0  0.32143  0.00000  0.25000  1.0000
  Ag  Ag3151    1.0  0.32143  0.03571  0.21429  1.0000
  Ag  Ag3152    1.0  0.28571  0.00000  0.28571  1.0000
  Ag  Ag3153    1.0  0.28571  0.03571  0.32143  1.0000
  Ag  Ag3154    1.0  0.32143  0.00000  0.32143  1.0000
  Ag  Ag3155    1.0  0.32143  0.03571  0.28571  1.0000
  Ag  Ag3156    1.0  0.28571  0.00000  0.35714  1.0000
  Ag  Ag3157    1.0  0.28571  0.03571  0.39286  1.0000
  Ag  Ag3158    1.0  0.32143  0.00000  0.39286  1.0000
  Ag  Ag3159    1.0  0.32143  0.03571  0.35714  1.0000
  Ag  Ag3160    1.0  0.28571  0.00000  0.42857  1.0000
  Ag  Ag3161    1.0  0.28571  0.03571  0.46429  1.0000
  Ag  Ag3162    1.0  0.32143  0.00000  0.46429  1.0000
  Ag  Ag3163    1.0  0.32143  0.03571  0.42857  1.0000
  Ag  Ag3164    1.0  0.28571  0.00000  0.50000  1.0000
  Ag  Ag3165    1.0  0.28571  0.03571  0.53571  1.0000
  Ag  Ag3166    1.0  0.32143  0.00000  0.53571  1.0000
  Ag  Ag3167    1.0  0.32143  0.03571  0.50000  1.0000
  Ag  Ag3168    1.0  0.28571  0.00000  0.57143  1.0000
  Ag  Ag3169    1.0  0.28571  0.03571  0.60714  1.0000
  Ag  Ag3170    1.0  0.32143  0.00000  0.60714  1.0000
  Ag  Ag3171    1.0  0.32143  0.03571  0.57143  1.0000
  Ag  Ag3172    1.0  0.28571  0.00000  0.64286  1.0000
  Ag  Ag3173    1.0  0.28571  0.03571  0.67857  1.0000
  Ag  Ag3174    1.0  0.32143  0.00000  0.67857  1.0000
  Ag  Ag3175    1.0  0.32143  0.03571  0.64286  1.0000
  Ag  Ag3176    1.0  0.28571  0.00000  0.71429  1.0000
  Ag  Ag3177    1.0  0.28571  0.03571  0.75000  1.0000
  Ag  Ag3178    1.0  0.32143  0.00000  0.75000  1.0000
  Ag  Ag3179    1.0  0.32143  0.03571  0.71429  1.0000
  Ag  Ag3180    1.0  0.28571  0.00000  0.78571  1.0000
  Ag  Ag3181    1.0  0.28571  0.03571  0.82143  1.0000
  Ag  Ag3182    1.0  0.32143  0.00000  0.82143  1.0000
  Ag  Ag3183    1.0  0.32143  0.03571  0.78571  1.0000
  Ag  Ag3184    1.0  0.28571  0.00000  0.85714  1.0000
  Ag  Ag3185    1.0  0.28571  0.03571  0.89286  1.0000
  Ag  Ag3186    1.0  0.32143  0.00000  0.89286  1.0000
  Ag  Ag3187    1.0  0.32143  0.03571  0.85714  1.0000
  Ag  Ag3188    1.0  0.28571  0.00000  0.92857  1.0000
  Ag  Ag3189    1.0  0.28571  0.03571  0.96429  1.0000
  Ag  Ag3190    1.0  0.32143  0.00000  0.96429  1.0000
  Ag  Ag3191    1.0  0.32143  0.03571  0.92857  1.0000
  Ag  Ag3192    1.0  0.28571  0.07143  0.00000  1.0000
  Ag  Ag3193    1.0  0.28571  0.10714  0.03571  1.0000
  Ag  Ag3194    1.0  0.32143  0.07143  0.03571  1.0000
  Ag  Ag3195    1.0  0.32143  0.10714  0.00000  1.0000
  Ag  Ag3196    1.0  0.28571  0.07143  0.07143  1.0000
  Ag  Ag3197    1.0  0.28571  0.10714  0.10714  1.0000
  Ag  Ag3198    1.0  0.32143  0.07143  0.10714  1.0000
  Ag  Ag3199    1.0  0.32143  0.10714  0.07143  1.0000
  Ag  Ag3200    1.0  0.28571  0.07143  0.14286  1.0000
  Ag  Ag3201    1.0  0.28571  0.10714  0.17857  1.0000
  Ag  Ag3202    1.0  0.32143  0.07143  0.17857  1.0000
  Ag  Ag3203    1.0  0.32143  0.10714  0.14286  1.0000
  Ag  Ag3204    1.0  0.28571  0.07143  0.21429  1.0000
  Ag  Ag3205    1.0  0.28571  0.10714  0.25000  1.0000
  Ag  Ag3206    1.0  0.32143  0.07143  0.25000  1.0000
  Ag  Ag3207    1.0  0.32143  0.10714  0.21429  1.0000
  Ag  Ag3208    1.0  0.28571  0.07143  0.28571  1.0000
  Ag  Ag3209    1.0  0.28571  0.10714  0.32143  1.0000
  Ag  Ag3210    1.0  0.32143  0.07143  0.32143  1.0000
  Ag  Ag3211    1.0  0.32143  0.10714  0.28571  1.0000
  Ag  Ag3212    1.0  0.28571  0.07143  0.35714  1.0000
  Ag  Ag3213    1.0  0.28571  0.10714  0.39286  1.0000
  Ag  Ag3214    1.0  0.32143  0.07143  0.39286  1.0000
  Ag  Ag3215    1.0  0.32143  0.10714  0.35714  1.0000
  Ag  Ag3216    1.0  0.28571  0.07143  0.42857  1.0000
  Ag  Ag3217    1.0  0.28571  0.10714  0.46429  1.0000
  Ag  Ag3218    1.0  0.32143  0.07143  0.46429  1.0000
  Ag  Ag3219    1.0  0.32143  0.10714  0.42857  1.0000
  Ag  Ag3220    1.0  0.28571  0.07143  0.50000  1.0000
  Ag  Ag3221    1.0  0.28571  0.10714  0.53571  1.0000
  Ag  Ag3222    1.0  0.32143  0.07143  0.53571  1.0000
  Ag  Ag3223    1.0  0.32143  0.10714  0.50000  1.0000
  Ag  Ag3224    1.0  0.28571  0.07143  0.57143  1.0000
  Ag  Ag3225    1.0  0.28571  0.10714  0.60714  1.0000
  Ag  Ag3226    1.0  0.32143  0.07143  0.60714  1.0000
  Ag  Ag3227    1.0  0.32143  0.10714  0.57143  1.0000
  Ag  Ag3228    1.0  0.28571  0.07143  0.64286  1.0000
  Ag  Ag3229    1.0  0.28571  0.10714  0.67857  1.0000
  Ag  Ag3230    1.0  0.32143  0.07143  0.67857  1.0000
  Ag  Ag3231    1.0  0.32143  0.10714  0.64286  1.0000
  Ag  Ag3232    1.0  0.28571  0.07143  0.71429  1.0000
  Ag  Ag3233    1.0  0.28571  0.10714  0.75000  1.0000
  Ag  Ag3234    1.0  0.32143  0.07143  0.75000  1.0000
  Ag  Ag3235    1.0  0.32143  0.10714  0.71429  1.0000
  Ag  Ag3236    1.0  0.28571  0.07143  0.78571  1.0000
  Ag  Ag3237    1.0  0.28571  0.10714  0.82143  1.0000
  Ag  Ag3238    1.0  0.32143  0.07143  0.82143  1.0000
  Ag  Ag3239    1.0  0.32143  0.10714  0.78571  1.0000
  Ag  Ag3240    1.0  0.28571  0.07143  0.85714  1.0000
  Ag  Ag3241    1.0  0.28571  0.10714  0.89286  1.0000
  Ag  Ag3242    1.0  0.32143  0.07143  0.89286  1.0000
  Ag  Ag3243    1.0  0.32143  0.10714  0.85714  1.0000
  Ag  Ag3244    1.0  0.28571  0.07143  0.92857  1.0000
  Ag  Ag3245    1.0  0.28571  0.10714  0.96429  1.0000
  Ag  Ag3246    1.0  0.32143  0.07143  0.96429  1.0000
  Ag  Ag3247    1.0  0.32143  0.10714  0.92857  1.0000
  Ag  Ag3248    1.0  0.28571  0.14286  0.00000  1.0000
  Ag  Ag3249    1.0  0.28571  0.17857  0.03571  1.0000
  Ag  Ag3250    1.0  0.32143  0.14286  0.03571  1.0000
  Ag  Ag3251    1.0  0.32143  0.17857  0.00000  1.0000
  Ag  Ag3252    1.0  0.28571  0.14286  0.07143  1.0000
  Ag  Ag3253    1.0  0.28571  0.17857  0.10714  1.0000
  Ag  Ag3254    1.0  0.32143  0.14286  0.10714  1.0000
  Ag  Ag3255    1.0  0.32143  0.17857  0.07143  1.0000
  Ag  Ag3256    1.0  0.28571  0.14286  0.14286  1.0000
  Ag  Ag3257    1.0  0.28571  0.17857  0.17857  1.0000
  Ag  Ag3258    1.0  0.32143  0.14286  0.17857  1.0000
  Ag  Ag3259    1.0  0.32143  0.17857  0.14286  1.0000
  Ag  Ag3260    1.0  0.28571  0.14286  0.21429  1.0000
  Ag  Ag3261    1.0  0.28571  0.17857  0.25000  1.0000
  Ag  Ag3262    1.0  0.32143  0.14286  0.25000  1.0000
  Ag  Ag3263    1.0  0.32143  0.17857  0.21429  1.0000
  Ag  Ag3264    1.0  0.28571  0.14286  0.28571  1.0000
  Ag  Ag3265    1.0  0.28571  0.17857  0.32143  1.0000
  Ag  Ag3266    1.0  0.32143  0.14286  0.32143  1.0000
  Ag  Ag3267    1.0  0.32143  0.17857  0.28571  1.0000
  Ag  Ag3268    1.0  0.28571  0.14286  0.35714  1.0000
  Ag  Ag3269    1.0  0.28571  0.17857  0.39286  1.0000
  Ag  Ag3270    1.0  0.32143  0.14286  0.39286  1.0000
  Ag  Ag3271    1.0  0.32143  0.17857  0.35714  1.0000
  Ag  Ag3272    1.0  0.28571  0.14286  0.42857  1.0000
  Ag  Ag3273    1.0  0.28571  0.17857  0.46429  1.0000
  Ag  Ag3274    1.0  0.32143  0.14286  0.46429  1.0000
  Ag  Ag3275    1.0  0.32143  0.17857  0.42857  1.0000
  Ag  Ag3276    1.0  0.28571  0.14286  0.50000  1.0000
  Ag  Ag3277    1.0  0.28571  0.17857  0.53571  1.0000
  Ag  Ag3278    1.0  0.32143  0.14286  0.53571  1.0000
  Ag  Ag3279    1.0  0.32143  0.17857  0.50000  1.0000
  Ag  Ag3280    1.0  0.28571  0.14286  0.57143  1.0000
  Ag  Ag3281    1.0  0.28571  0.17857  0.60714  1.0000
  Ag  Ag3282    1.0  0.32143  0.14286  0.60714  1.0000
  Ag  Ag3283    1.0  0.32143  0.17857  0.57143  1.0000
  Ag  Ag3284    1.0  0.28571  0.14286  0.64286  1.0000
  Ag  Ag3285    1.0  0.28571  0.17857  0.67857  1.0000
  Ag  Ag3286    1.0  0.32143  0.14286  0.67857  1.0000
  Ag  Ag3287    1.0  0.32143  0.17857  0.64286  1.0000
  Ag  Ag3288    1.0  0.28571  0.14286  0.71429  1.0000
  Ag  Ag3289    1.0  0.28571  0.17857  0.75000  1.0000
  Ag  Ag3290    1.0  0.32143  0.14286  0.75000  1.0000
  Ag  Ag3291    1.0  0.32143  0.17857  0.71429  1.0000
  Ag  Ag3292    1.0  0.28571  0.14286  0.78571  1.0000
  Ag  Ag3293    1.0  0.28571  0.17857  0.82143  1.0000
  Ag  Ag3294    1.0  0.32143  0.14286  0.82143  1.0000
  Ag  Ag3295    1.0  0.32143  0.17857  0.78571  1.0000
  Ag  Ag3296    1.0  0.28571  0.14286  0.85714  1.0000
  Ag  Ag3297    1.0  0.28571  0.17857  0.89286  1.0000
  Ag  Ag3298    1.0  0.32143  0.14286  0.89286  1.0000
  Ag  Ag3299    1.0  0.32143  0.17857  0.85714  1.0000
  Ag  Ag3300    1.0  0.28571  0.14286  0.92857  1.0000
  Ag  Ag3301    1.0  0.28571  0.17857  0.96429  1.0000
  Ag  Ag3302    1.0  0.32143  0.14286  0.96429  1.0000
  Ag  Ag3303    1.0  0.32143  0.17857  0.92857  1.0000
  Ag  Ag3304    1.0  0.28571  0.21429  0.00000  1.0000
  Ag  Ag3305    1.0  0.28571  0.25000  0.03571  1.0000
  Ag  Ag3306    1.0  0.32143  0.21429  0.03571  1.0000
  Ag  Ag3307    1.0  0.32143  0.25000  0.00000  1.0000
  Ag  Ag3308    1.0  0.28571  0.21429  0.07143  1.0000
  Ag  Ag3309    1.0  0.28571  0.25000  0.10714  1.0000
  Ag  Ag3310    1.0  0.32143  0.21429  0.10714  1.0000
  Ag  Ag3311    1.0  0.32143  0.25000  0.07143  1.0000
  Ag  Ag3312    1.0  0.28571  0.21429  0.14286  1.0000
  Ag  Ag3313    1.0  0.28571  0.25000  0.17857  1.0000
  Ag  Ag3314    1.0  0.32143  0.21429  0.17857  1.0000
  Ag  Ag3315    1.0  0.32143  0.25000  0.14286  1.0000
  Ag  Ag3316    1.0  0.28571  0.21429  0.21429  1.0000
  Ag  Ag3317    1.0  0.28571  0.25000  0.25000  1.0000
  Ag  Ag3318    1.0  0.32143  0.21429  0.25000  1.0000
  Ag  Ag3319    1.0  0.32143  0.25000  0.21429  1.0000
  Ag  Ag3320    1.0  0.28571  0.21429  0.28571  1.0000
  Ag  Ag3321    1.0  0.28571  0.25000  0.32143  1.0000
  Ag  Ag3322    1.0  0.32143  0.21429  0.32143  1.0000
  Ag  Ag3323    1.0  0.32143  0.25000  0.28571  1.0000
  Ag  Ag3324    1.0  0.28571  0.21429  0.35714  1.0000
  Ag  Ag3325    1.0  0.28571  0.25000  0.39286  1.0000
  Ag  Ag3326    1.0  0.32143  0.21429  0.39286  1.0000
  Ag  Ag3327    1.0  0.32143  0.25000  0.35714  1.0000
  Ag  Ag3328    1.0  0.28571  0.21429  0.42857  1.0000
  Ag  Ag3329    1.0  0.28571  0.25000  0.46429  1.0000
  Ag  Ag3330    1.0  0.32143  0.21429  0.46429  1.0000
  Ag  Ag3331    1.0  0.32143  0.25000  0.42857  1.0000
  Ag  Ag3332    1.0  0.28571  0.21429  0.50000  1.0000
  Ag  Ag3333    1.0  0.28571  0.25000  0.53571  1.0000
  Ag  Ag3334    1.0  0.32143  0.21429  0.53571  1.0000
  Ag  Ag3335    1.0  0.32143  0.25000  0.50000  1.0000
  Ag  Ag3336    1.0  0.28571  0.21429  0.57143  1.0000
  Ag  Ag3337    1.0  0.28571  0.25000  0.60714  1.0000
  Ag  Ag3338    1.0  0.32143  0.21429  0.60714  1.0000
  Ag  Ag3339    1.0  0.32143  0.25000  0.57143  1.0000
  Ag  Ag3340    1.0  0.28571  0.21429  0.64286  1.0000
  Ag  Ag3341    1.0  0.28571  0.25000  0.67857  1.0000
  Ag  Ag3342    1.0  0.32143  0.21429  0.67857  1.0000
  Ag  Ag3343    1.0  0.32143  0.25000  0.64286  1.0000
  Ag  Ag3344    1.0  0.28571  0.21429  0.71429  1.0000
  Ag  Ag3345    1.0  0.28571  0.25000  0.75000  1.0000
  Ag  Ag3346    1.0  0.32143  0.21429  0.75000  1.0000
  Ag  Ag3347    1.0  0.32143  0.25000  0.71429  1.0000
  Ag  Ag3348    1.0  0.28571  0.21429  0.78571  1.0000
  Ag  Ag3349    1.0  0.28571  0.25000  0.82143  1.0000
  Ag  Ag3350    1.0  0.32143  0.21429  0.82143  1.0000
  Ag  Ag3351    1.0  0.32143  0.25000  0.78571  1.0000
  Ag  Ag3352    1.0  0.28571  0.21429  0.85714  1.0000
  Ag  Ag3353    1.0  0.28571  0.25000  0.89286  1.0000
  Ag  Ag3354    1.0  0.32143  0.21429  0.89286  1.0000
  Ag  Ag3355    1.0  0.32143  0.25000  0.85714  1.0000
  Ag  Ag3356    1.0  0.28571  0.21429  0.92857  1.0000
  Ag  Ag3357    1.0  0.28571  0.25000  0.96429  1.0000
  Ag  Ag3358    1.0  0.32143  0.21429  0.96429  1.0000
  Ag  Ag3359    1.0  0.32143  0.25000  0.92857  1.0000
  Ag  Ag3360    1.0  0.28571  0.28571  0.00000  1.0000
  Ag  Ag3361    1.0  0.28571  0.32143  0.03571  1.0000
  Ag  Ag3362    1.0  0.32143  0.28571  0.03571  1.0000
  Ag  Ag3363    1.0  0.32143  0.32143  0.00000  1.0000
  Ag  Ag3364    1.0  0.28571  0.28571  0.07143  1.0000
  Ag  Ag3365    1.0  0.28571  0.32143  0.10714  1.0000
  Ag  Ag3366    1.0  0.32143  0.28571  0.10714  1.0000
  Ag  Ag3367    1.0  0.32143  0.32143  0.07143  1.0000
  Ag  Ag3368    1.0  0.28571  0.28571  0.14286  1.0000
  Ag  Ag3369    1.0  0.28571  0.32143  0.17857  1.0000
  Ag  Ag3370    1.0  0.32143  0.28571  0.17857  1.0000
  Ag  Ag3371    1.0  0.32143  0.32143  0.14286  1.0000
  Ag  Ag3372    1.0  0.28571  0.28571  0.21429  1.0000
  Ag  Ag3373    1.0  0.28571  0.32143  0.25000  1.0000
  Ag  Ag3374    1.0  0.32143  0.28571  0.25000  1.0000
  Ag  Ag3375    1.0  0.32143  0.32143  0.21429  1.0000
  Ag  Ag3376    1.0  0.28571  0.28571  0.28571  1.0000
  Ag  Ag3377    1.0  0.28571  0.32143  0.32143  1.0000
  Ag  Ag3378    1.0  0.32143  0.28571  0.32143  1.0000
  Ag  Ag3379    1.0  0.32143  0.32143  0.28571  1.0000
  Ag  Ag3380    1.0  0.28571  0.28571  0.35714  1.0000
  Ag  Ag3381    1.0  0.28571  0.32143  0.39286  1.0000
  Ag  Ag3382    1.0  0.32143  0.28571  0.39286  1.0000
  Ag  Ag3383    1.0  0.32143  0.32143  0.35714  1.0000
  Ag  Ag3384    1.0  0.28571  0.28571  0.42857  1.0000
  Ag  Ag3385    1.0  0.28571  0.32143  0.46429  1.0000
  Ag  Ag3386    1.0  0.32143  0.28571  0.46429  1.0000
  Ag  Ag3387    1.0  0.32143  0.32143  0.42857  1.0000
  Ag  Ag3388    1.0  0.28571  0.28571  0.50000  1.0000
  Ag  Ag3389    1.0  0.28571  0.32143  0.53571  1.0000
  Ag  Ag3390    1.0  0.32143  0.28571  0.53571  1.0000
  Ag  Ag3391    1.0  0.32143  0.32143  0.50000  1.0000
  Ag  Ag3392    1.0  0.28571  0.28571  0.57143  1.0000
  Ag  Ag3393    1.0  0.28571  0.32143  0.60714  1.0000
  Ag  Ag3394    1.0  0.32143  0.28571  0.60714  1.0000
  Ag  Ag3395    1.0  0.32143  0.32143  0.57143  1.0000
  Ag  Ag3396    1.0  0.28571  0.28571  0.64286  1.0000
  Ag  Ag3397    1.0  0.28571  0.32143  0.67857  1.0000
  Ag  Ag3398    1.0  0.32143  0.28571  0.67857  1.0000
  Ag  Ag3399    1.0  0.32143  0.32143  0.64286  1.0000
  Ag  Ag3400    1.0  0.28571  0.28571  0.71429  1.0000
  Ag  Ag3401    1.0  0.28571  0.32143  0.75000  1.0000
  Ag  Ag3402    1.0  0.32143  0.28571  0.75000  1.0000
  Ag  Ag3403    1.0  0.32143  0.32143  0.71429  1.0000
  Ag  Ag3404    1.0  0.28571  0.28571  0.78571  1.0000
  Ag  Ag3405    1.0  0.28571  0.32143  0.82143  1.0000
  Ag  Ag3406    1.0  0.32143  0.28571  0.82143  1.0000
  Ag  Ag3407    1.0  0.32143  0.32143  0.78571  1.0000
  Ag  Ag3408    1.0  0.28571  0.28571  0.85714  1.0000
  Ag  Ag3409    1.0  0.28571  0.32143  0.89286  1.0000
  Ag  Ag3410    1.0  0.32143  0.28571  0.89286  1.0000
  Ag  Ag3411    1.0  0.32143  0.32143  0.85714  1.0000
  Ag  Ag3412    1.0  0.28571  0.28571  0.92857  1.0000
  Ag  Ag3413    1.0  0.28571  0.32143  0.96429  1.0000
  Ag  Ag3414    1.0  0.32143  0.28571  0.96429  1.0000
  Ag  Ag3415    1.0  0.32143  0.32143  0.92857  1.0000
  Ag  Ag3416    1.0  0.28571  0.35714  0.00000  1.0000
  Ag  Ag3417    1.0  0.28571  0.39286  0.03571  1.0000
  Ag  Ag3418    1.0  0.32143  0.35714  0.03571  1.0000
  Ag  Ag3419    1.0  0.32143  0.39286  0.00000  1.0000
  Ag  Ag3420    1.0  0.28571  0.35714  0.07143  1.0000
  Ag  Ag3421    1.0  0.28571  0.39286  0.10714  1.0000
  Ag  Ag3422    1.0  0.32143  0.35714  0.10714  1.0000
  Ag  Ag3423    1.0  0.32143  0.39286  0.07143  1.0000
  Ag  Ag3424    1.0  0.28571  0.35714  0.14286  1.0000
  Ag  Ag3425    1.0  0.28571  0.39286  0.17857  1.0000
  Ag  Ag3426    1.0  0.32143  0.35714  0.17857  1.0000
  Ag  Ag3427    1.0  0.32143  0.39286  0.14286  1.0000
  Ag  Ag3428    1.0  0.28571  0.35714  0.21429  1.0000
  Ag  Ag3429    1.0  0.28571  0.39286  0.25000  1.0000
  Ag  Ag3430    1.0  0.32143  0.35714  0.25000  1.0000
  Ag  Ag3431    1.0  0.32143  0.39286  0.21429  1.0000
  Ag  Ag3432    1.0  0.28571  0.35714  0.28571  1.0000
  Ag  Ag3433    1.0  0.28571  0.39286  0.32143  1.0000
  Ag  Ag3434    1.0  0.32143  0.35714  0.32143  1.0000
  Ag  Ag3435    1.0  0.32143  0.39286  0.28571  1.0000
  Ag  Ag3436    1.0  0.28571  0.35714  0.35714  1.0000
  Ag  Ag3437    1.0  0.28571  0.39286  0.39286  1.0000
  Ag  Ag3438    1.0  0.32143  0.35714  0.39286  1.0000
  Ag  Ag3439    1.0  0.32143  0.39286  0.35714  1.0000
  Ag  Ag3440    1.0  0.28571  0.35714  0.42857  1.0000
  Ag  Ag3441    1.0  0.28571  0.39286  0.46429  1.0000
  Ag  Ag3442    1.0  0.32143  0.35714  0.46429  1.0000
  Ag  Ag3443    1.0  0.32143  0.39286  0.42857  1.0000
  Ag  Ag3444    1.0  0.28571  0.35714  0.50000  1.0000
  Ag  Ag3445    1.0  0.28571  0.39286  0.53571  1.0000
  Ag  Ag3446    1.0  0.32143  0.35714  0.53571  1.0000
  Ag  Ag3447    1.0  0.32143  0.39286  0.50000  1.0000
  Ag  Ag3448    1.0  0.28571  0.35714  0.57143  1.0000
  Ag  Ag3449    1.0  0.28571  0.39286  0.60714  1.0000
  Ag  Ag3450    1.0  0.32143  0.35714  0.60714  1.0000
  Ag  Ag3451    1.0  0.32143  0.39286  0.57143  1.0000
  Ag  Ag3452    1.0  0.28571  0.35714  0.64286  1.0000
  Ag  Ag3453    1.0  0.28571  0.39286  0.67857  1.0000
  Ag  Ag3454    1.0  0.32143  0.35714  0.67857  1.0000
  Ag  Ag3455    1.0  0.32143  0.39286  0.64286  1.0000
  Ag  Ag3456    1.0  0.28571  0.35714  0.71429  1.0000
  Ag  Ag3457    1.0  0.28571  0.39286  0.75000  1.0000
  Ag  Ag3458    1.0  0.32143  0.35714  0.75000  1.0000
  Ag  Ag3459    1.0  0.32143  0.39286  0.71429  1.0000
  Ag  Ag3460    1.0  0.28571  0.35714  0.78571  1.0000
  Ag  Ag3461    1.0  0.28571  0.39286  0.82143  1.0000
  Ag  Ag3462    1.0  0.32143  0.35714  0.82143  1.0000
  Ag  Ag3463    1.0  0.32143  0.39286  0.78571  1.0000
  Ag  Ag3464    1.0  0.28571  0.35714  0.85714  1.0000
  Ag  Ag3465    1.0  0.28571  0.39286  0.89286  1.0000
  Ag  Ag3466    1.0  0.32143  0.35714  0.89286  1.0000
  Ag  Ag3467    1.0  0.32143  0.39286  0.85714  1.0000
  Ag  Ag3468    1.0  0.28571  0.35714  0.92857  1.0000
  Ag  Ag3469    1.0  0.28571  0.39286  0.96429  1.0000
  Ag  Ag3470    1.0  0.32143  0.35714  0.96429  1.0000
  Ag  Ag3471    1.0  0.32143  0.39286  0.92857  1.0000
  Ag  Ag3472    1.0  0.28571  0.42857  0.00000  1.0000
  Ag  Ag3473    1.0  0.28571  0.46429  0.03571  1.0000
  Ag  Ag3474    1.0  0.32143  0.42857  0.03571  1.0000
  Ag  Ag3475    1.0  0.32143  0.46429  0.00000  1.0000
  Ag  Ag3476    1.0  0.28571  0.42857  0.07143  1.0000
  Ag  Ag3477    1.0  0.28571  0.46429  0.10714  1.0000
  Ag  Ag3478    1.0  0.32143  0.42857  0.10714  1.0000
  Ag  Ag3479    1.0  0.32143  0.46429  0.07143  1.0000
  Ag  Ag3480    1.0  0.28571  0.42857  0.14286  1.0000
  Ag  Ag3481    1.0  0.28571  0.46429  0.17857  1.0000
  Ag  Ag3482    1.0  0.32143  0.42857  0.17857  1.0000
  Ag  Ag3483    1.0  0.32143  0.46429  0.14286  1.0000
  Ag  Ag3484    1.0  0.28571  0.42857  0.21429  1.0000
  Ag  Ag3485    1.0  0.28571  0.46429  0.25000  1.0000
  Ag  Ag3486    1.0  0.32143  0.42857  0.25000  1.0000
  Ag  Ag3487    1.0  0.32143  0.46429  0.21429  1.0000
  Ag  Ag3488    1.0  0.28571  0.42857  0.28571  1.0000
  Ag  Ag3489    1.0  0.28571  0.46429  0.32143  1.0000
  Ag  Ag3490    1.0  0.32143  0.42857  0.32143  1.0000
  Ag  Ag3491    1.0  0.32143  0.46429  0.28571  1.0000
  Ag  Ag3492    1.0  0.28571  0.42857  0.35714  1.0000
  Ag  Ag3493    1.0  0.28571  0.46429  0.39286  1.0000
  Ag  Ag3494    1.0  0.32143  0.42857  0.39286  1.0000
  Ag  Ag3495    1.0  0.32143  0.46429  0.35714  1.0000
  Ag  Ag3496    1.0  0.28571  0.42857  0.42857  1.0000
  Ag  Ag3497    1.0  0.28571  0.46429  0.46429  1.0000
  Ag  Ag3498    1.0  0.32143  0.42857  0.46429  1.0000
  Ag  Ag3499    1.0  0.32143  0.46429  0.42857  1.0000
  Ag  Ag3500    1.0  0.28571  0.42857  0.50000  1.0000
  Ag  Ag3501    1.0  0.28571  0.46429  0.53571  1.0000
  Ag  Ag3502    1.0  0.32143  0.42857  0.53571  1.0000
  Ag  Ag3503    1.0  0.32143  0.46429  0.50000  1.0000
  Ag  Ag3504    1.0  0.28571  0.42857  0.57143  1.0000
  Ag  Ag3505    1.0  0.28571  0.46429  0.60714  1.0000
  Ag  Ag3506    1.0  0.32143  0.42857  0.60714  1.0000
  Ag  Ag3507    1.0  0.32143  0.46429  0.57143  1.0000
  Ag  Ag3508    1.0  0.28571  0.42857  0.64286  1.0000
  Ag  Ag3509    1.0  0.28571  0.46429  0.67857  1.0000
  Ag  Ag3510    1.0  0.32143  0.42857  0.67857  1.0000
  Ag  Ag3511    1.0  0.32143  0.46429  0.64286  1.0000
  Ag  Ag3512    1.0  0.28571  0.42857  0.71429  1.0000
  Ag  Ag3513    1.0  0.28571  0.46429  0.75000  1.0000
  Ag  Ag3514    1.0  0.32143  0.42857  0.75000  1.0000
  Ag  Ag3515    1.0  0.32143  0.46429  0.71429  1.0000
  Ag  Ag3516    1.0  0.28571  0.42857  0.78571  1.0000
  Ag  Ag3517    1.0  0.28571  0.46429  0.82143  1.0000
  Ag  Ag3518    1.0  0.32143  0.42857  0.82143  1.0000
  Ag  Ag3519    1.0  0.32143  0.46429  0.78571  1.0000
  Ag  Ag3520    1.0  0.28571  0.42857  0.85714  1.0000
  Ag  Ag3521    1.0  0.28571  0.46429  0.89286  1.0000
  Ag  Ag3522    1.0  0.32143  0.42857  0.89286  1.0000
  Ag  Ag3523    1.0  0.32143  0.46429  0.85714  1.0000
  Ag  Ag3524    1.0  0.28571  0.42857  0.92857  1.0000
  Ag  Ag3525    1.0  0.28571  0.46429  0.96429  1.0000
  Ag  Ag3526    1.0  0.32143  0.42857  0.96429  1.0000
  Ag  Ag3527    1.0  0.32143  0.46429  0.92857  1.0000
  Ag  Ag3528    1.0  0.28571  0.50000  0.00000  1.0000
  Ag  Ag3529    1.0  0.28571  0.53571  0.03571  1.0000
  Ag  Ag3530    1.0  0.32143  0.50000  0.03571  1.0000
  Ag  Ag3531    1.0  0.32143  0.53571  0.00000  1.0000
  Ag  Ag3532    1.0  0.28571  0.50000  0.07143  1.0000
  Ag  Ag3533    1.0  0.28571  0.53571  0.10714  1.0000
  Ag  Ag3534    1.0  0.32143  0.50000  0.10714  1.0000
  Ag  Ag3535    1.0  0.32143  0.53571  0.07143  1.0000
  Ag  Ag3536    1.0  0.28571  0.50000  0.14286  1.0000
  Ag  Ag3537    1.0  0.28571  0.53571  0.17857  1.0000
  Ag  Ag3538    1.0  0.32143  0.50000  0.17857  1.0000
  Ag  Ag3539    1.0  0.32143  0.53571  0.14286  1.0000
  Ag  Ag3540    1.0  0.28571  0.50000  0.21429  1.0000
  Ag  Ag3541    1.0  0.28571  0.53571  0.25000  1.0000
  Ag  Ag3542    1.0  0.32143  0.50000  0.25000  1.0000
  Ag  Ag3543    1.0  0.32143  0.53571  0.21429  1.0000
  Ag  Ag3544    1.0  0.28571  0.50000  0.28571  1.0000
  Ag  Ag3545    1.0  0.28571  0.53571  0.32143  1.0000
  Ag  Ag3546    1.0  0.32143  0.50000  0.32143  1.0000
  Ag  Ag3547    1.0  0.32143  0.53571  0.28571  1.0000
  Ag  Ag3548    1.0  0.28571  0.50000  0.35714  1.0000
  Ag  Ag3549    1.0  0.28571  0.53571  0.39286  1.0000
  Ag  Ag3550    1.0  0.32143  0.50000  0.39286  1.0000
  Ag  Ag3551    1.0  0.32143  0.53571  0.35714  1.0000
  Ag  Ag3552    1.0  0.28571  0.50000  0.42857  1.0000
  Ag  Ag3553    1.0  0.28571  0.53571  0.46429  1.0000
  Ag  Ag3554    1.0  0.32143  0.50000  0.46429  1.0000
  Ag  Ag3555    1.0  0.32143  0.53571  0.42857  1.0000
  Ag  Ag3556    1.0  0.28571  0.50000  0.50000  1.0000
  Ag  Ag3557    1.0  0.28571  0.53571  0.53571  1.0000
  Ag  Ag3558    1.0  0.32143  0.50000  0.53571  1.0000
  Ag  Ag3559    1.0  0.32143  0.53571  0.50000  1.0000
  Ag  Ag3560    1.0  0.28571  0.50000  0.57143  1.0000
  Ag  Ag3561    1.0  0.28571  0.53571  0.60714  1.0000
  Ag  Ag3562    1.0  0.32143  0.50000  0.60714  1.0000
  Ag  Ag3563    1.0  0.32143  0.53571  0.57143  1.0000
  Ag  Ag3564    1.0  0.28571  0.50000  0.64286  1.0000
  Ag  Ag3565    1.0  0.28571  0.53571  0.67857  1.0000
  Ag  Ag3566    1.0  0.32143  0.50000  0.67857  1.0000
  Ag  Ag3567    1.0  0.32143  0.53571  0.64286  1.0000
  Ag  Ag3568    1.0  0.28571  0.50000  0.71429  1.0000
  Ag  Ag3569    1.0  0.28571  0.53571  0.75000  1.0000
  Ag  Ag3570    1.0  0.32143  0.50000  0.75000  1.0000
  Ag  Ag3571    1.0  0.32143  0.53571  0.71429  1.0000
  Ag  Ag3572    1.0  0.28571  0.50000  0.78571  1.0000
  Ag  Ag3573    1.0  0.28571  0.53571  0.82143  1.0000
  Ag  Ag3574    1.0  0.32143  0.50000  0.82143  1.0000
  Ag  Ag3575    1.0  0.32143  0.53571  0.78571  1.0000
  Ag  Ag3576    1.0  0.28571  0.50000  0.85714  1.0000
  Ag  Ag3577    1.0  0.28571  0.53571  0.89286  1.0000
  Ag  Ag3578    1.0  0.32143  0.50000  0.89286  1.0000
  Ag  Ag3579    1.0  0.32143  0.53571  0.85714  1.0000
  Ag  Ag3580    1.0  0.28571  0.50000  0.92857  1.0000
  Ag  Ag3581    1.0  0.28571  0.53571  0.96429  1.0000
  Ag  Ag3582    1.0  0.32143  0.50000  0.96429  1.0000
  Ag  Ag3583    1.0  0.32143  0.53571  0.92857  1.0000
  Ag  Ag3584    1.0  0.28571  0.57143  0.00000  1.0000
  Ag  Ag3585    1.0  0.28571  0.60714  0.03571  1.0000
  Ag  Ag3586    1.0  0.32143  0.57143  0.03571  1.0000
  Ag  Ag3587    1.0  0.32143  0.60714  0.00000  1.0000
  Ag  Ag3588    1.0  0.28571  0.57143  0.07143  1.0000
  Ag  Ag3589    1.0  0.28571  0.60714  0.10714  1.0000
  Ag  Ag3590    1.0  0.32143  0.57143  0.10714  1.0000
  Ag  Ag3591    1.0  0.32143  0.60714  0.07143  1.0000
  Ag  Ag3592    1.0  0.28571  0.57143  0.14286  1.0000
  Ag  Ag3593    1.0  0.28571  0.60714  0.17857  1.0000
  Ag  Ag3594    1.0  0.32143  0.57143  0.17857  1.0000
  Ag  Ag3595    1.0  0.32143  0.60714  0.14286  1.0000
  Ag  Ag3596    1.0  0.28571  0.57143  0.21429  1.0000
  Ag  Ag3597    1.0  0.28571  0.60714  0.25000  1.0000
  Ag  Ag3598    1.0  0.32143  0.57143  0.25000  1.0000
  Ag  Ag3599    1.0  0.32143  0.60714  0.21429  1.0000
  Ag  Ag3600    1.0  0.28571  0.57143  0.28571  1.0000
  Ag  Ag3601    1.0  0.28571  0.60714  0.32143  1.0000
  Ag  Ag3602    1.0  0.32143  0.57143  0.32143  1.0000
  Ag  Ag3603    1.0  0.32143  0.60714  0.28571  1.0000
  Ag  Ag3604    1.0  0.28571  0.57143  0.35714  1.0000
  Ag  Ag3605    1.0  0.28571  0.60714  0.39286  1.0000
  Ag  Ag3606    1.0  0.32143  0.57143  0.39286  1.0000
  Ag  Ag3607    1.0  0.32143  0.60714  0.35714  1.0000
  Ag  Ag3608    1.0  0.28571  0.57143  0.42857  1.0000
  Ag  Ag3609    1.0  0.28571  0.60714  0.46429  1.0000
  Ag  Ag3610    1.0  0.32143  0.57143  0.46429  1.0000
  Ag  Ag3611    1.0  0.32143  0.60714  0.42857  1.0000
  Ag  Ag3612    1.0  0.28571  0.57143  0.50000  1.0000
  Ag  Ag3613    1.0  0.28571  0.60714  0.53571  1.0000
  Ag  Ag3614    1.0  0.32143  0.57143  0.53571  1.0000
  Ag  Ag3615    1.0  0.32143  0.60714  0.50000  1.0000
  Ag  Ag3616    1.0  0.28571  0.57143  0.57143  1.0000
  Ag  Ag3617    1.0  0.28571  0.60714  0.60714  1.0000
  Ag  Ag3618    1.0  0.32143  0.57143  0.60714  1.0000
  Ag  Ag3619    1.0  0.32143  0.60714  0.57143  1.0000
  Ag  Ag3620    1.0  0.28571  0.57143  0.64286  1.0000
  Ag  Ag3621    1.0  0.28571  0.60714  0.67857  1.0000
  Ag  Ag3622    1.0  0.32143  0.57143  0.67857  1.0000
  Ag  Ag3623    1.0  0.32143  0.60714  0.64286  1.0000
  Ag  Ag3624    1.0  0.28571  0.57143  0.71429  1.0000
  Ag  Ag3625    1.0  0.28571  0.60714  0.75000  1.0000
  Ag  Ag3626    1.0  0.32143  0.57143  0.75000  1.0000
  Ag  Ag3627    1.0  0.32143  0.60714  0.71429  1.0000
  Ag  Ag3628    1.0  0.28571  0.57143  0.78571  1.0000
  Ag  Ag3629    1.0  0.28571  0.60714  0.82143  1.0000
  Ag  Ag3630    1.0  0.32143  0.57143  0.82143  1.0000
  Ag  Ag3631    1.0  0.32143  0.60714  0.78571  1.0000
  Ag  Ag3632    1.0  0.28571  0.57143  0.85714  1.0000
  Ag  Ag3633    1.0  0.28571  0.60714  0.89286  1.0000
  Ag  Ag3634    1.0  0.32143  0.57143  0.89286  1.0000
  Ag  Ag3635    1.0  0.32143  0.60714  0.85714  1.0000
  Ag  Ag3636    1.0  0.28571  0.57143  0.92857  1.0000
  Ag  Ag3637    1.0  0.28571  0.60714  0.96429  1.0000
  Ag  Ag3638    1.0  0.32143  0.57143  0.96429  1.0000
  Ag  Ag3639    1.0  0.32143  0.60714  0.92857  1.0000
  Ag  Ag3640    1.0  0.28571  0.64286  0.00000  1.0000
  Ag  Ag3641    1.0  0.28571  0.67857  0.03571  1.0000
  Ag  Ag3642    1.0  0.32143  0.64286  0.03571  1.0000
  Ag  Ag3643    1.0  0.32143  0.67857  0.00000  1.0000
  Ag  Ag3644    1.0  0.28571  0.64286  0.07143  1.0000
  Ag  Ag3645    1.0  0.28571  0.67857  0.10714  1.0000
  Ag  Ag3646    1.0  0.32143  0.64286  0.10714  1.0000
  Ag  Ag3647    1.0  0.32143  0.67857  0.07143  1.0000
  Ag  Ag3648    1.0  0.28571  0.64286  0.14286  1.0000
  Ag  Ag3649    1.0  0.28571  0.67857  0.17857  1.0000
  Ag  Ag3650    1.0  0.32143  0.64286  0.17857  1.0000
  Ag  Ag3651    1.0  0.32143  0.67857  0.14286  1.0000
  Ag  Ag3652    1.0  0.28571  0.64286  0.21429  1.0000
  Ag  Ag3653    1.0  0.28571  0.67857  0.25000  1.0000
  Ag  Ag3654    1.0  0.32143  0.64286  0.25000  1.0000
  Ag  Ag3655    1.0  0.32143  0.67857  0.21429  1.0000
  Ag  Ag3656    1.0  0.28571  0.64286  0.28571  1.0000
  Ag  Ag3657    1.0  0.28571  0.67857  0.32143  1.0000
  Ag  Ag3658    1.0  0.32143  0.64286  0.32143  1.0000
  Ag  Ag3659    1.0  0.32143  0.67857  0.28571  1.0000
  Ag  Ag3660    1.0  0.28571  0.64286  0.35714  1.0000
  Ag  Ag3661    1.0  0.28571  0.67857  0.39286  1.0000
  Ag  Ag3662    1.0  0.32143  0.64286  0.39286  1.0000
  Ag  Ag3663    1.0  0.32143  0.67857  0.35714  1.0000
  Ag  Ag3664    1.0  0.28571  0.64286  0.42857  1.0000
  Ag  Ag3665    1.0  0.28571  0.67857  0.46429  1.0000
  Ag  Ag3666    1.0  0.32143  0.64286  0.46429  1.0000
  Ag  Ag3667    1.0  0.32143  0.67857  0.42857  1.0000
  Ag  Ag3668    1.0  0.28571  0.64286  0.50000  1.0000
  Ag  Ag3669    1.0  0.28571  0.67857  0.53571  1.0000
  Ag  Ag3670    1.0  0.32143  0.64286  0.53571  1.0000
  Ag  Ag3671    1.0  0.32143  0.67857  0.50000  1.0000
  Ag  Ag3672    1.0  0.28571  0.64286  0.57143  1.0000
  Ag  Ag3673    1.0  0.28571  0.67857  0.60714  1.0000
  Ag  Ag3674    1.0  0.32143  0.64286  0.60714  1.0000
  Ag  Ag3675    1.0  0.32143  0.67857  0.57143  1.0000
  Ag  Ag3676    1.0  0.28571  0.64286  0.64286  1.0000
  Ag  Ag3677    1.0  0.28571  0.67857  0.67857  1.0000
  Ag  Ag3678    1.0  0.32143  0.64286  0.67857  1.0000
  Ag  Ag3679    1.0  0.32143  0.67857  0.64286  1.0000
  Ag  Ag3680    1.0  0.28571  0.64286  0.71429  1.0000
  Ag  Ag3681    1.0  0.28571  0.67857  0.75000  1.0000
  Ag  Ag3682    1.0  0.32143  0.64286  0.75000  1.0000
  Ag  Ag3683    1.0  0.32143  0.67857  0.71429  1.0000
  Ag  Ag3684    1.0  0.28571  0.64286  0.78571  1.0000
  Ag  Ag3685    1.0  0.28571  0.67857  0.82143  1.0000
  Ag  Ag3686    1.0  0.32143  0.64286  0.82143  1.0000
  Ag  Ag3687    1.0  0.32143  0.67857  0.78571  1.0000
  Ag  Ag3688    1.0  0.28571  0.64286  0.85714  1.0000
  Ag  Ag3689    1.0  0.28571  0.67857  0.89286  1.0000
  Ag  Ag3690    1.0  0.32143  0.64286  0.89286  1.0000
  Ag  Ag3691    1.0  0.32143  0.67857  0.85714  1.0000
  Ag  Ag3692    1.0  0.28571  0.64286  0.92857  1.0000
  Ag  Ag3693    1.0  0.28571  0.67857  0.96429  1.0000
  Ag  Ag3694    1.0  0.32143  0.64286  0.96429  1.0000
  Ag  Ag3695    1.0  0.32143  0.67857  0.92857  1.0000
  Ag  Ag3696    1.0  0.28571  0.71429  0.00000  1.0000
  Ag  Ag3697    1.0  0.28571  0.75000  0.03571  1.0000
  Ag  Ag3698    1.0  0.32143  0.71429  0.03571  1.0000
  Ag  Ag3699    1.0  0.32143  0.75000  0.00000  1.0000
  Ag  Ag3700    1.0  0.28571  0.71429  0.07143  1.0000
  Ag  Ag3701    1.0  0.28571  0.75000  0.10714  1.0000
  Ag  Ag3702    1.0  0.32143  0.71429  0.10714  1.0000
  Ag  Ag3703    1.0  0.32143  0.75000  0.07143  1.0000
  Ag  Ag3704    1.0  0.28571  0.71429  0.14286  1.0000
  Ag  Ag3705    1.0  0.28571  0.75000  0.17857  1.0000
  Ag  Ag3706    1.0  0.32143  0.71429  0.17857  1.0000
  Ag  Ag3707    1.0  0.32143  0.75000  0.14286  1.0000
  Ag  Ag3708    1.0  0.28571  0.71429  0.21429  1.0000
  Ag  Ag3709    1.0  0.28571  0.75000  0.25000  1.0000
  Ag  Ag3710    1.0  0.32143  0.71429  0.25000  1.0000
  Ag  Ag3711    1.0  0.32143  0.75000  0.21429  1.0000
  Ag  Ag3712    1.0  0.28571  0.71429  0.28571  1.0000
  Ag  Ag3713    1.0  0.28571  0.75000  0.32143  1.0000
  Ag  Ag3714    1.0  0.32143  0.71429  0.32143  1.0000
  Ag  Ag3715    1.0  0.32143  0.75000  0.28571  1.0000
  Ag  Ag3716    1.0  0.28571  0.71429  0.35714  1.0000
  Ag  Ag3717    1.0  0.28571  0.75000  0.39286  1.0000
  Ag  Ag3718    1.0  0.32143  0.71429  0.39286  1.0000
  Ag  Ag3719    1.0  0.32143  0.75000  0.35714  1.0000
  Ag  Ag3720    1.0  0.28571  0.71429  0.42857  1.0000
  Ag  Ag3721    1.0  0.28571  0.75000  0.46429  1.0000
  Ag  Ag3722    1.0  0.32143  0.71429  0.46429  1.0000
  Ag  Ag3723    1.0  0.32143  0.75000  0.42857  1.0000
  Ag  Ag3724    1.0  0.28571  0.71429  0.50000  1.0000
  Ag  Ag3725    1.0  0.28571  0.75000  0.53571  1.0000
  Ag  Ag3726    1.0  0.32143  0.71429  0.53571  1.0000
  Ag  Ag3727    1.0  0.32143  0.75000  0.50000  1.0000
  Ag  Ag3728    1.0  0.28571  0.71429  0.57143  1.0000
  Ag  Ag3729    1.0  0.28571  0.75000  0.60714  1.0000
  Ag  Ag3730    1.0  0.32143  0.71429  0.60714  1.0000
  Ag  Ag3731    1.0  0.32143  0.75000  0.57143  1.0000
  Ag  Ag3732    1.0  0.28571  0.71429  0.64286  1.0000
  Ag  Ag3733    1.0  0.28571  0.75000  0.67857  1.0000
  Ag  Ag3734    1.0  0.32143  0.71429  0.67857  1.0000
  Ag  Ag3735    1.0  0.32143  0.75000  0.64286  1.0000
  Ag  Ag3736    1.0  0.28571  0.71429  0.71429  1.0000
  Ag  Ag3737    1.0  0.28571  0.75000  0.75000  1.0000
  Ag  Ag3738    1.0  0.32143  0.71429  0.75000  1.0000
  Ag  Ag3739    1.0  0.32143  0.75000  0.71429  1.0000
  Ag  Ag3740    1.0  0.28571  0.71429  0.78571  1.0000
  Ag  Ag3741    1.0  0.28571  0.75000  0.82143  1.0000
  Ag  Ag3742    1.0  0.32143  0.71429  0.82143  1.0000
  Ag  Ag3743    1.0  0.32143  0.75000  0.78571  1.0000
  Ag  Ag3744    1.0  0.28571  0.71429  0.85714  1.0000
  Ag  Ag3745    1.0  0.28571  0.75000  0.89286  1.0000
  Ag  Ag3746    1.0  0.32143  0.71429  0.89286  1.0000
  Ag  Ag3747    1.0  0.32143  0.75000  0.85714  1.0000
  Ag  Ag3748    1.0  0.28571  0.71429  0.92857  1.0000
  Ag  Ag3749    1.0  0.28571  0.75000  0.96429  1.0000
  Ag  Ag3750    1.0  0.32143  0.71429  0.96429  1.0000
  Ag  Ag3751    1.0  0.32143  0.75000  0.92857  1.0000
  Ag  Ag3752    1.0  0.28571  0.78571  0.00000  1.0000
  Ag  Ag3753    1.0  0.28571  0.82143  0.03571  1.0000
  Ag  Ag3754    1.0  0.32143  0.78571  0.03571  1.0000
  Ag  Ag3755    1.0  0.32143  0.82143  0.00000  1.0000
  Ag  Ag3756    1.0  0.28571  0.78571  0.07143  1.0000
  Ag  Ag3757    1.0  0.28571  0.82143  0.10714  1.0000
  Ag  Ag3758    1.0  0.32143  0.78571  0.10714  1.0000
  Ag  Ag3759    1.0  0.32143  0.82143  0.07143  1.0000
  Ag  Ag3760    1.0  0.28571  0.78571  0.14286  1.0000
  Ag  Ag3761    1.0  0.28571  0.82143  0.17857  1.0000
  Ag  Ag3762    1.0  0.32143  0.78571  0.17857  1.0000
  Ag  Ag3763    1.0  0.32143  0.82143  0.14286  1.0000
  Ag  Ag3764    1.0  0.28571  0.78571  0.21429  1.0000
  Ag  Ag3765    1.0  0.28571  0.82143  0.25000  1.0000
  Ag  Ag3766    1.0  0.32143  0.78571  0.25000  1.0000
  Ag  Ag3767    1.0  0.32143  0.82143  0.21429  1.0000
  Ag  Ag3768    1.0  0.28571  0.78571  0.28571  1.0000
  Ag  Ag3769    1.0  0.28571  0.82143  0.32143  1.0000
  Ag  Ag3770    1.0  0.32143  0.78571  0.32143  1.0000
  Ag  Ag3771    1.0  0.32143  0.82143  0.28571  1.0000
  Ag  Ag3772    1.0  0.28571  0.78571  0.35714  1.0000
  Ag  Ag3773    1.0  0.28571  0.82143  0.39286  1.0000
  Ag  Ag3774    1.0  0.32143  0.78571  0.39286  1.0000
  Ag  Ag3775    1.0  0.32143  0.82143  0.35714  1.0000
  Ag  Ag3776    1.0  0.28571  0.78571  0.42857  1.0000
  Ag  Ag3777    1.0  0.28571  0.82143  0.46429  1.0000
  Ag  Ag3778    1.0  0.32143  0.78571  0.46429  1.0000
  Ag  Ag3779    1.0  0.32143  0.82143  0.42857  1.0000
  Ag  Ag3780    1.0  0.28571  0.78571  0.50000  1.0000
  Ag  Ag3781    1.0  0.28571  0.82143  0.53571  1.0000
  Ag  Ag3782    1.0  0.32143  0.78571  0.53571  1.0000
  Ag  Ag3783    1.0  0.32143  0.82143  0.50000  1.0000
  Ag  Ag3784    1.0  0.28571  0.78571  0.57143  1.0000
  Ag  Ag3785    1.0  0.28571  0.82143  0.60714  1.0000
  Ag  Ag3786    1.0  0.32143  0.78571  0.60714  1.0000
  Ag  Ag3787    1.0  0.32143  0.82143  0.57143  1.0000
  Ag  Ag3788    1.0  0.28571  0.78571  0.64286  1.0000
  Ag  Ag3789    1.0  0.28571  0.82143  0.67857  1.0000
  Ag  Ag3790    1.0  0.32143  0.78571  0.67857  1.0000
  Ag  Ag3791    1.0  0.32143  0.82143  0.64286  1.0000
  Ag  Ag3792    1.0  0.28571  0.78571  0.71429  1.0000
  Ag  Ag3793    1.0  0.28571  0.82143  0.75000  1.0000
  Ag  Ag3794    1.0  0.32143  0.78571  0.75000  1.0000
  Ag  Ag3795    1.0  0.32143  0.82143  0.71429  1.0000
  Ag  Ag3796    1.0  0.28571  0.78571  0.78571  1.0000
  Ag  Ag3797    1.0  0.28571  0.82143  0.82143  1.0000
  Ag  Ag3798    1.0  0.32143  0.78571  0.82143  1.0000
  Ag  Ag3799    1.0  0.32143  0.82143  0.78571  1.0000
  Ag  Ag3800    1.0  0.28571  0.78571  0.85714  1.0000
  Ag  Ag3801    1.0  0.28571  0.82143  0.89286  1.0000
  Ag  Ag3802    1.0  0.32143  0.78571  0.89286  1.0000
  Ag  Ag3803    1.0  0.32143  0.82143  0.85714  1.0000
  Ag  Ag3804    1.0  0.28571  0.78571  0.92857  1.0000
  Ag  Ag3805    1.0  0.28571  0.82143  0.96429  1.0000
  Ag  Ag3806    1.0  0.32143  0.78571  0.96429  1.0000
  Ag  Ag3807    1.0  0.32143  0.82143  0.92857  1.0000
  Ag  Ag3808    1.0  0.28571  0.85714  0.00000  1.0000
  Ag  Ag3809    1.0  0.28571  0.89286  0.03571  1.0000
  Ag  Ag3810    1.0  0.32143  0.85714  0.03571  1.0000
  Ag  Ag3811    1.0  0.32143  0.89286  0.00000  1.0000
  Ag  Ag3812    1.0  0.28571  0.85714  0.07143  1.0000
  Ag  Ag3813    1.0  0.28571  0.89286  0.10714  1.0000
  Ag  Ag3814    1.0  0.32143  0.85714  0.10714  1.0000
  Ag  Ag3815    1.0  0.32143  0.89286  0.07143  1.0000
  Ag  Ag3816    1.0  0.28571  0.85714  0.14286  1.0000
  Ag  Ag3817    1.0  0.28571  0.89286  0.17857  1.0000
  Ag  Ag3818    1.0  0.32143  0.85714  0.17857  1.0000
  Ag  Ag3819    1.0  0.32143  0.89286  0.14286  1.0000
  Ag  Ag3820    1.0  0.28571  0.85714  0.21429  1.0000
  Ag  Ag3821    1.0  0.28571  0.89286  0.25000  1.0000
  Ag  Ag3822    1.0  0.32143  0.85714  0.25000  1.0000
  Ag  Ag3823    1.0  0.32143  0.89286  0.21429  1.0000
  Ag  Ag3824    1.0  0.28571  0.85714  0.28571  1.0000
  Ag  Ag3825    1.0  0.28571  0.89286  0.32143  1.0000
  Ag  Ag3826    1.0  0.32143  0.85714  0.32143  1.0000
  Ag  Ag3827    1.0  0.32143  0.89286  0.28571  1.0000
  Ag  Ag3828    1.0  0.28571  0.85714  0.35714  1.0000
  Ag  Ag3829    1.0  0.28571  0.89286  0.39286  1.0000
  Ag  Ag3830    1.0  0.32143  0.85714  0.39286  1.0000
  Ag  Ag3831    1.0  0.32143  0.89286  0.35714  1.0000
  Ag  Ag3832    1.0  0.28571  0.85714  0.42857  1.0000
  Ag  Ag3833    1.0  0.28571  0.89286  0.46429  1.0000
  Ag  Ag3834    1.0  0.32143  0.85714  0.46429  1.0000
  Ag  Ag3835    1.0  0.32143  0.89286  0.42857  1.0000
  Ag  Ag3836    1.0  0.28571  0.85714  0.50000  1.0000
  Ag  Ag3837    1.0  0.28571  0.89286  0.53571  1.0000
  Ag  Ag3838    1.0  0.32143  0.85714  0.53571  1.0000
  Ag  Ag3839    1.0  0.32143  0.89286  0.50000  1.0000
  Ag  Ag3840    1.0  0.28571  0.85714  0.57143  1.0000
  Ag  Ag3841    1.0  0.28571  0.89286  0.60714  1.0000
  Ag  Ag3842    1.0  0.32143  0.85714  0.60714  1.0000
  Ag  Ag3843    1.0  0.32143  0.89286  0.57143  1.0000
  Ag  Ag3844    1.0  0.28571  0.85714  0.64286  1.0000
  Ag  Ag3845    1.0  0.28571  0.89286  0.67857  1.0000
  Ag  Ag3846    1.0  0.32143  0.85714  0.67857  1.0000
  Ag  Ag3847    1.0  0.32143  0.89286  0.64286  1.0000
  Ag  Ag3848    1.0  0.28571  0.85714  0.71429  1.0000
  Ag  Ag3849    1.0  0.28571  0.89286  0.75000  1.0000
  Ag  Ag3850    1.0  0.32143  0.85714  0.75000  1.0000
  Ag  Ag3851    1.0  0.32143  0.89286  0.71429  1.0000
  Ag  Ag3852    1.0  0.28571  0.85714  0.78571  1.0000
  Ag  Ag3853    1.0  0.28571  0.89286  0.82143  1.0000
  Ag  Ag3854    1.0  0.32143  0.85714  0.82143  1.0000
  Ag  Ag3855    1.0  0.32143  0.89286  0.78571  1.0000
  Ag  Ag3856    1.0  0.28571  0.85714  0.85714  1.0000
  Ag  Ag3857    1.0  0.28571  0.89286  0.89286  1.0000
  Ag  Ag3858    1.0  0.32143  0.85714  0.89286  1.0000
  Ag  Ag3859    1.0  0.32143  0.89286  0.85714  1.0000
  Ag  Ag3860    1.0  0.28571  0.85714  0.92857  1.0000
  Ag  Ag3861    1.0  0.28571  0.89286  0.96429  1.0000
  Ag  Ag3862    1.0  0.32143  0.85714  0.96429  1.0000
  Ag  Ag3863    1.0  0.32143  0.89286  0.92857  1.0000
  Ag  Ag3864    1.0  0.28571  0.92857  0.00000  1.0000
  Ag  Ag3865    1.0  0.28571  0.96429  0.03571  1.0000
  Ag  Ag3866    1.0  0.32143  0.92857  0.03571  1.0000
  Ag  Ag3867    1.0  0.32143  0.96429  0.00000  1.0000
  Ag  Ag3868    1.0  0.28571  0.92857  0.07143  1.0000
  Ag  Ag3869    1.0  0.28571  0.96429  0.10714  1.0000
  Ag  Ag3870    1.0  0.32143  0.92857  0.10714  1.0000
  Ag  Ag3871    1.0  0.32143  0.96429  0.07143  1.0000
  Ag  Ag3872    1.0  0.28571  0.92857  0.14286  1.0000
  Ag  Ag3873    1.0  0.28571  0.96429  0.17857  1.0000
  Ag  Ag3874    1.0  0.32143  0.92857  0.17857  1.0000
  Ag  Ag3875    1.0  0.32143  0.96429  0.14286  1.0000
  Ag  Ag3876    1.0  0.28571  0.92857  0.21429  1.0000
  Ag  Ag3877    1.0  0.28571  0.96429  0.25000  1.0000
  Ag  Ag3878    1.0  0.32143  0.92857  0.25000  1.0000
  Ag  Ag3879    1.0  0.32143  0.96429  0.21429  1.0000
  Ag  Ag3880    1.0  0.28571  0.92857  0.28571  1.0000
  Ag  Ag3881    1.0  0.28571  0.96429  0.32143  1.0000
  Ag  Ag3882    1.0  0.32143  0.92857  0.32143  1.0000
  Ag  Ag3883    1.0  0.32143  0.96429  0.28571  1.0000
  Ag  Ag3884    1.0  0.28571  0.92857  0.35714  1.0000
  Ag  Ag3885    1.0  0.28571  0.96429  0.39286  1.0000
  Ag  Ag3886    1.0  0.32143  0.92857  0.39286  1.0000
  Ag  Ag3887    1.0  0.32143  0.96429  0.35714  1.0000
  Ag  Ag3888    1.0  0.28571  0.92857  0.42857  1.0000
  Ag  Ag3889    1.0  0.28571  0.96429  0.46429  1.0000
  Ag  Ag3890    1.0  0.32143  0.92857  0.46429  1.0000
  Ag  Ag3891    1.0  0.32143  0.96429  0.42857  1.0000
  Ag  Ag3892    1.0  0.28571  0.92857  0.50000  1.0000
  Ag  Ag3893    1.0  0.28571  0.96429  0.53571  1.0000
  Ag  Ag3894    1.0  0.32143  0.92857  0.53571  1.0000
  Ag  Ag3895    1.0  0.32143  0.96429  0.50000  1.0000
  Ag  Ag3896    1.0  0.28571  0.92857  0.57143  1.0000
  Ag  Ag3897    1.0  0.28571  0.96429  0.60714  1.0000
  Ag  Ag3898    1.0  0.32143  0.92857  0.60714  1.0000
  Ag  Ag3899    1.0  0.32143  0.96429  0.57143  1.0000
  Ag  Ag3900    1.0  0.28571  0.92857  0.64286  1.0000
  Ag  Ag3901    1.0  0.28571  0.96429  0.67857  1.0000
  Ag  Ag3902    1.0  0.32143  0.92857  0.67857  1.0000
  Ag  Ag3903    1.0  0.32143  0.96429  0.64286  1.0000
  Ag  Ag3904    1.0  0.28571  0.92857  0.71429  1.0000
  Ag  Ag3905    1.0  0.28571  0.96429  0.75000  1.0000
  Ag  Ag3906    1.0  0.32143  0.92857  0.75000  1.0000
  Ag  Ag3907    1.0  0.32143  0.96429  0.71429  1.0000
  Ag  Ag3908    1.0  0.28571  0.92857  0.78571  1.0000
  Ag  Ag3909    1.0  0.28571  0.96429  0.82143  1.0000
  Ag  Ag3910    1.0  0.32143  0.92857  0.82143  1.0000
  Ag  Ag3911    1.0  0.32143  0.96429  0.78571  1.0000
  Ag  Ag3912    1.0  0.28571  0.92857  0.85714  1.0000
  Ag  Ag3913    1.0  0.28571  0.96429  0.89286  1.0000
  Ag  Ag3914    1.0  0.32143  0.92857  0.89286  1.0000
  Ag  Ag3915    1.0  0.32143  0.96429  0.85714  1.0000
  Ag  Ag3916    1.0  0.28571  0.92857  0.92857  1.0000
  Ag  Ag3917    1.0  0.28571  0.96429  0.96429  1.0000
  Ag  Ag3918    1.0  0.32143  0.92857  0.96429  1.0000
  Ag  Ag3919    1.0  0.32143  0.96429  0.92857  1.0000
  Ag  Ag3920    1.0  0.35714  0.00000  0.00000  1.0000
  Ag  Ag3921    1.0  0.35714  0.03571  0.03571  1.0000
  Ag  Ag3922    1.0  0.39286  0.00000  0.03571  1.0000
  Ag  Ag3923    1.0  0.39286  0.03571  0.00000  1.0000
  Ag  Ag3924    1.0  0.35714  0.00000  0.07143  1.0000
  Ag  Ag3925    1.0  0.35714  0.03571  0.10714  1.0000
  Ag  Ag3926    1.0  0.39286  0.00000  0.10714  1.0000
  Ag  Ag3927    1.0  0.39286  0.03571  0.07143  1.0000
  Ag  Ag3928    1.0  0.35714  0.00000  0.14286  1.0000
  Ag  Ag3929    1.0  0.35714  0.03571  0.17857  1.0000
  Ag  Ag3930    1.0  0.39286  0.00000  0.17857  1.0000
  Ag  Ag3931    1.0  0.39286  0.03571  0.14286  1.0000
  Ag  Ag3932    1.0  0.35714  0.00000  0.21429  1.0000
  Ag  Ag3933    1.0  0.35714  0.03571  0.25000  1.0000
  Ag  Ag3934    1.0  0.39286  0.00000  0.25000  1.0000
  Ag  Ag3935    1.0  0.39286  0.03571  0.21429  1.0000
  Ag  Ag3936    1.0  0.35714  0.00000  0.28571  1.0000
  Ag  Ag3937    1.0  0.35714  0.03571  0.32143  1.0000
  Ag  Ag3938    1.0  0.39286  0.00000  0.32143  1.0000
  Ag  Ag3939    1.0  0.39286  0.03571  0.28571  1.0000
  Ag  Ag3940    1.0  0.35714  0.00000  0.35714  1.0000
  Ag  Ag3941    1.0  0.35714  0.03571  0.39286  1.0000
  Ag  Ag3942    1.0  0.39286  0.00000  0.39286  1.0000
  Ag  Ag3943    1.0  0.39286  0.03571  0.35714  1.0000
  Ag  Ag3944    1.0  0.35714  0.00000  0.42857  1.0000
  Ag  Ag3945    1.0  0.35714  0.03571  0.46429  1.0000
  Ag  Ag3946    1.0  0.39286  0.00000  0.46429  1.0000
  Ag  Ag3947    1.0  0.39286  0.03571  0.42857  1.0000
  Ag  Ag3948    1.0  0.35714  0.00000  0.50000  1.0000
  Ag  Ag3949    1.0  0.35714  0.03571  0.53571  1.0000
  Ag  Ag3950    1.0  0.39286  0.00000  0.53571  1.0000
  Ag  Ag3951    1.0  0.39286  0.03571  0.50000  1.0000
  Ag  Ag3952    1.0  0.35714  0.00000  0.57143  1.0000
  Ag  Ag3953    1.0  0.35714  0.03571  0.60714  1.0000
  Ag  Ag3954    1.0  0.39286  0.00000  0.60714  1.0000
  Ag  Ag3955    1.0  0.39286  0.03571  0.57143  1.0000
  Ag  Ag3956    1.0  0.35714  0.00000  0.64286  1.0000
  Ag  Ag3957    1.0  0.35714  0.03571  0.67857  1.0000
  Ag  Ag3958    1.0  0.39286  0.00000  0.67857  1.0000
  Ag  Ag3959    1.0  0.39286  0.03571  0.64286  1.0000
  Ag  Ag3960    1.0  0.35714  0.00000  0.71429  1.0000
  Ag  Ag3961    1.0  0.35714  0.03571  0.75000  1.0000
  Ag  Ag3962    1.0  0.39286  0.00000  0.75000  1.0000
  Ag  Ag3963    1.0  0.39286  0.03571  0.71429  1.0000
  Ag  Ag3964    1.0  0.35714  0.00000  0.78571  1.0000
  Ag  Ag3965    1.0  0.35714  0.03571  0.82143  1.0000
  Ag  Ag3966    1.0  0.39286  0.00000  0.82143  1.0000
  Ag  Ag3967    1.0  0.39286  0.03571  0.78571  1.0000
  Ag  Ag3968    1.0  0.35714  0.00000  0.85714  1.0000
  Ag  Ag3969    1.0  0.35714  0.03571  0.89286  1.0000
  Ag  Ag3970    1.0  0.39286  0.00000  0.89286  1.0000
  Ag  Ag3971    1.0  0.39286  0.03571  0.85714  1.0000
  Ag  Ag3972    1.0  0.35714  0.00000  0.92857  1.0000
  Ag  Ag3973    1.0  0.35714  0.03571  0.96429  1.0000
  Ag  Ag3974    1.0  0.39286  0.00000  0.96429  1.0000
  Ag  Ag3975    1.0  0.39286  0.03571  0.92857  1.0000
  Ag  Ag3976    1.0  0.35714  0.07143  0.00000  1.0000
  Ag  Ag3977    1.0  0.35714  0.10714  0.03571  1.0000
  Ag  Ag3978    1.0  0.39286  0.07143  0.03571  1.0000
  Ag  Ag3979    1.0  0.39286  0.10714  0.00000  1.0000
  Ag  Ag3980    1.0  0.35714  0.07143  0.07143  1.0000
  Ag  Ag3981    1.0  0.35714  0.10714  0.10714  1.0000
  Ag  Ag3982    1.0  0.39286  0.07143  0.10714  1.0000
  Ag  Ag3983    1.0  0.39286  0.10714  0.07143  1.0000
  Ag  Ag3984    1.0  0.35714  0.07143  0.14286  1.0000
  Ag  Ag3985    1.0  0.35714  0.10714  0.17857  1.0000
  Ag  Ag3986    1.0  0.39286  0.07143  0.17857  1.0000
  Ag  Ag3987    1.0  0.39286  0.10714  0.14286  1.0000
  Ag  Ag3988    1.0  0.35714  0.07143  0.21429  1.0000
  Ag  Ag3989    1.0  0.35714  0.10714  0.25000  1.0000
  Ag  Ag3990    1.0  0.39286  0.07143  0.25000  1.0000
  Ag  Ag3991    1.0  0.39286  0.10714  0.21429  1.0000
  Ag  Ag3992    1.0  0.35714  0.07143  0.28571  1.0000
  Ag  Ag3993    1.0  0.35714  0.10714  0.32143  1.0000
  Ag  Ag3994    1.0  0.39286  0.07143  0.32143  1.0000
  Ag  Ag3995    1.0  0.39286  0.10714  0.28571  1.0000
  Ag  Ag3996    1.0  0.35714  0.07143  0.35714  1.0000
  Ag  Ag3997    1.0  0.35714  0.10714  0.39286  1.0000
  Ag  Ag3998    1.0  0.39286  0.07143  0.39286  1.0000
  Ag  Ag3999    1.0  0.39286  0.10714  0.35714  1.0000
  Ag  Ag4000    1.0  0.35714  0.07143  0.42857  1.0000
  Ag  Ag4001    1.0  0.35714  0.10714  0.46429  1.0000
  Ag  Ag4002    1.0  0.39286  0.07143  0.46429  1.0000
  Ag  Ag4003    1.0  0.39286  0.10714  0.42857  1.0000
  Ag  Ag4004    1.0  0.35714  0.07143  0.50000  1.0000
  Ag  Ag4005    1.0  0.35714  0.10714  0.53571  1.0000
  Ag  Ag4006    1.0  0.39286  0.07143  0.53571  1.0000
  Ag  Ag4007    1.0  0.39286  0.10714  0.50000  1.0000
  Ag  Ag4008    1.0  0.35714  0.07143  0.57143  1.0000
  Ag  Ag4009    1.0  0.35714  0.10714  0.60714  1.0000
  Ag  Ag4010    1.0  0.39286  0.07143  0.60714  1.0000
  Ag  Ag4011    1.0  0.39286  0.10714  0.57143  1.0000
  Ag  Ag4012    1.0  0.35714  0.07143  0.64286  1.0000
  Ag  Ag4013    1.0  0.35714  0.10714  0.67857  1.0000
  Ag  Ag4014    1.0  0.39286  0.07143  0.67857  1.0000
  Ag  Ag4015    1.0  0.39286  0.10714  0.64286  1.0000
  Ag  Ag4016    1.0  0.35714  0.07143  0.71429  1.0000
  Ag  Ag4017    1.0  0.35714  0.10714  0.75000  1.0000
  Ag  Ag4018    1.0  0.39286  0.07143  0.75000  1.0000
  Ag  Ag4019    1.0  0.39286  0.10714  0.71429  1.0000
  Ag  Ag4020    1.0  0.35714  0.07143  0.78571  1.0000
  Ag  Ag4021    1.0  0.35714  0.10714  0.82143  1.0000
  Ag  Ag4022    1.0  0.39286  0.07143  0.82143  1.0000
  Ag  Ag4023    1.0  0.39286  0.10714  0.78571  1.0000
  Ag  Ag4024    1.0  0.35714  0.07143  0.85714  1.0000
  Ag  Ag4025    1.0  0.35714  0.10714  0.89286  1.0000
  Ag  Ag4026    1.0  0.39286  0.07143  0.89286  1.0000
  Ag  Ag4027    1.0  0.39286  0.10714  0.85714  1.0000
  Ag  Ag4028    1.0  0.35714  0.07143  0.92857  1.0000
  Ag  Ag4029    1.0  0.35714  0.10714  0.96429  1.0000
  Ag  Ag4030    1.0  0.39286  0.07143  0.96429  1.0000
  Ag  Ag4031    1.0  0.39286  0.10714  0.92857  1.0000
  Ag  Ag4032    1.0  0.35714  0.14286  0.00000  1.0000
  Ag  Ag4033    1.0  0.35714  0.17857  0.03571  1.0000
  Ag  Ag4034    1.0  0.39286  0.14286  0.03571  1.0000
  Ag  Ag4035    1.0  0.39286  0.17857  0.00000  1.0000
  Ag  Ag4036    1.0  0.35714  0.14286  0.07143  1.0000
  Ag  Ag4037    1.0  0.35714  0.17857  0.10714  1.0000
  Ag  Ag4038    1.0  0.39286  0.14286  0.10714  1.0000
  Ag  Ag4039    1.0  0.39286  0.17857  0.07143  1.0000
  Ag  Ag4040    1.0  0.35714  0.14286  0.14286  1.0000
  Ag  Ag4041    1.0  0.35714  0.17857  0.17857  1.0000
  Ag  Ag4042    1.0  0.39286  0.14286  0.17857  1.0000
  Ag  Ag4043    1.0  0.39286  0.17857  0.14286  1.0000
  Ag  Ag4044    1.0  0.35714  0.14286  0.21429  1.0000
  Ag  Ag4045    1.0  0.35714  0.17857  0.25000  1.0000
  Ag  Ag4046    1.0  0.39286  0.14286  0.25000  1.0000
  Ag  Ag4047    1.0  0.39286  0.17857  0.21429  1.0000
  Ag  Ag4048    1.0  0.35714  0.14286  0.28571  1.0000
  Ag  Ag4049    1.0  0.35714  0.17857  0.32143  1.0000
  Ag  Ag4050    1.0  0.39286  0.14286  0.32143  1.0000
  Ag  Ag4051    1.0  0.39286  0.17857  0.28571  1.0000
  Ag  Ag4052    1.0  0.35714  0.14286  0.35714  1.0000
  Ag  Ag4053    1.0  0.35714  0.17857  0.39286  1.0000
  Ag  Ag4054    1.0  0.39286  0.14286  0.39286  1.0000
  Ag  Ag4055    1.0  0.39286  0.17857  0.35714  1.0000
  Ag  Ag4056    1.0  0.35714  0.14286  0.42857  1.0000
  Ag  Ag4057    1.0  0.35714  0.17857  0.46429  1.0000
  Ag  Ag4058    1.0  0.39286  0.14286  0.46429  1.0000
  Ag  Ag4059    1.0  0.39286  0.17857  0.42857  1.0000
  Ag  Ag4060    1.0  0.35714  0.14286  0.50000  1.0000
  Ag  Ag4061    1.0  0.35714  0.17857  0.53571  1.0000
  Ag  Ag4062    1.0  0.39286  0.14286  0.53571  1.0000
  Ag  Ag4063    1.0  0.39286  0.17857  0.50000  1.0000
  Ag  Ag4064    1.0  0.35714  0.14286  0.57143  1.0000
  Ag  Ag4065    1.0  0.35714  0.17857  0.60714  1.0000
  Ag  Ag4066    1.0  0.39286  0.14286  0.60714  1.0000
  Ag  Ag4067    1.0  0.39286  0.17857  0.57143  1.0000
  Ag  Ag4068    1.0  0.35714  0.14286  0.64286  1.0000
  Ag  Ag4069    1.0  0.35714  0.17857  0.67857  1.0000
  Ag  Ag4070    1.0  0.39286  0.14286  0.67857  1.0000
  Ag  Ag4071    1.0  0.39286  0.17857  0.64286  1.0000
  Ag  Ag4072    1.0  0.35714  0.14286  0.71429  1.0000
  Ag  Ag4073    1.0  0.35714  0.17857  0.75000  1.0000
  Ag  Ag4074    1.0  0.39286  0.14286  0.75000  1.0000
  Ag  Ag4075    1.0  0.39286  0.17857  0.71429  1.0000
  Ag  Ag4076    1.0  0.35714  0.14286  0.78571  1.0000
  Ag  Ag4077    1.0  0.35714  0.17857  0.82143  1.0000
  Ag  Ag4078    1.0  0.39286  0.14286  0.82143  1.0000
  Ag  Ag4079    1.0  0.39286  0.17857  0.78571  1.0000
  Ag  Ag4080    1.0  0.35714  0.14286  0.85714  1.0000
  Ag  Ag4081    1.0  0.35714  0.17857  0.89286  1.0000
  Ag  Ag4082    1.0  0.39286  0.14286  0.89286  1.0000
  Ag  Ag4083    1.0  0.39286  0.17857  0.85714  1.0000
  Ag  Ag4084    1.0  0.35714  0.14286  0.92857  1.0000
  Ag  Ag4085    1.0  0.35714  0.17857  0.96429  1.0000
  Ag  Ag4086    1.0  0.39286  0.14286  0.96429  1.0000
  Ag  Ag4087    1.0  0.39286  0.17857  0.92857  1.0000
  Ag  Ag4088    1.0  0.35714  0.21429  0.00000  1.0000
  Ag  Ag4089    1.0  0.35714  0.25000  0.03571  1.0000
  Ag  Ag4090    1.0  0.39286  0.21429  0.03571  1.0000
  Ag  Ag4091    1.0  0.39286  0.25000  0.00000  1.0000
  Ag  Ag4092    1.0  0.35714  0.21429  0.07143  1.0000
  Ag  Ag4093    1.0  0.35714  0.25000  0.10714  1.0000
  Ag  Ag4094    1.0  0.39286  0.21429  0.10714  1.0000
  Ag  Ag4095    1.0  0.39286  0.25000  0.07143  1.0000
  Ag  Ag4096    1.0  0.35714  0.21429  0.14286  1.0000
  Ag  Ag4097    1.0  0.35714  0.25000  0.17857  1.0000
  Ag  Ag4098    1.0  0.39286  0.21429  0.17857  1.0000
  Ag  Ag4099    1.0  0.39286  0.25000  0.14286  1.0000
  Ag  Ag4100    1.0  0.35714  0.21429  0.21429  1.0000
  Ag  Ag4101    1.0  0.35714  0.25000  0.25000  1.0000
  Ag  Ag4102    1.0  0.39286  0.21429  0.25000  1.0000
  Ag  Ag4103    1.0  0.39286  0.25000  0.21429  1.0000
  Ag  Ag4104    1.0  0.35714  0.21429  0.28571  1.0000
  Ag  Ag4105    1.0  0.35714  0.25000  0.32143  1.0000
  Ag  Ag4106    1.0  0.39286  0.21429  0.32143  1.0000
  Ag  Ag4107    1.0  0.39286  0.25000  0.28571  1.0000
  Ag  Ag4108    1.0  0.35714  0.21429  0.35714  1.0000
  Ag  Ag4109    1.0  0.35714  0.25000  0.39286  1.0000
  Ag  Ag4110    1.0  0.39286  0.21429  0.39286  1.0000
  Ag  Ag4111    1.0  0.39286  0.25000  0.35714  1.0000
  Ag  Ag4112    1.0  0.35714  0.21429  0.42857  1.0000
  Ag  Ag4113    1.0  0.35714  0.25000  0.46429  1.0000
  Ag  Ag4114    1.0  0.39286  0.21429  0.46429  1.0000
  Ag  Ag4115    1.0  0.39286  0.25000  0.42857  1.0000
  Ag  Ag4116    1.0  0.35714  0.21429  0.50000  1.0000
  Ag  Ag4117    1.0  0.35714  0.25000  0.53571  1.0000
  Ag  Ag4118    1.0  0.39286  0.21429  0.53571  1.0000
  Ag  Ag4119    1.0  0.39286  0.25000  0.50000  1.0000
  Ag  Ag4120    1.0  0.35714  0.21429  0.57143  1.0000
  Ag  Ag4121    1.0  0.35714  0.25000  0.60714  1.0000
  Ag  Ag4122    1.0  0.39286  0.21429  0.60714  1.0000
  Ag  Ag4123    1.0  0.39286  0.25000  0.57143  1.0000
  Ag  Ag4124    1.0  0.35714  0.21429  0.64286  1.0000
  Ag  Ag4125    1.0  0.35714  0.25000  0.67857  1.0000
  Ag  Ag4126    1.0  0.39286  0.21429  0.67857  1.0000
  Ag  Ag4127    1.0  0.39286  0.25000  0.64286  1.0000
  Ag  Ag4128    1.0  0.35714  0.21429  0.71429  1.0000
  Ag  Ag4129    1.0  0.35714  0.25000  0.75000  1.0000
  Ag  Ag4130    1.0  0.39286  0.21429  0.75000  1.0000
  Ag  Ag4131    1.0  0.39286  0.25000  0.71429  1.0000
  Ag  Ag4132    1.0  0.35714  0.21429  0.78571  1.0000
  Ag  Ag4133    1.0  0.35714  0.25000  0.82143  1.0000
  Ag  Ag4134    1.0  0.39286  0.21429  0.82143  1.0000
  Ag  Ag4135    1.0  0.39286  0.25000  0.78571  1.0000
  Ag  Ag4136    1.0  0.35714  0.21429  0.85714  1.0000
  Ag  Ag4137    1.0  0.35714  0.25000  0.89286  1.0000
  Ag  Ag4138    1.0  0.39286  0.21429  0.89286  1.0000
  Ag  Ag4139    1.0  0.39286  0.25000  0.85714  1.0000
  Ag  Ag4140    1.0  0.35714  0.21429  0.92857  1.0000
  Ag  Ag4141    1.0  0.35714  0.25000  0.96429  1.0000
  Ag  Ag4142    1.0  0.39286  0.21429  0.96429  1.0000
  Ag  Ag4143    1.0  0.39286  0.25000  0.92857  1.0000
  Ag  Ag4144    1.0  0.35714  0.28571  0.00000  1.0000
  Ag  Ag4145    1.0  0.35714  0.32143  0.03571  1.0000
  Ag  Ag4146    1.0  0.39286  0.28571  0.03571  1.0000
  Ag  Ag4147    1.0  0.39286  0.32143  0.00000  1.0000
  Ag  Ag4148    1.0  0.35714  0.28571  0.07143  1.0000
  Ag  Ag4149    1.0  0.35714  0.32143  0.10714  1.0000
  Ag  Ag4150    1.0  0.39286  0.28571  0.10714  1.0000
  Ag  Ag4151    1.0  0.39286  0.32143  0.07143  1.0000
  Ag  Ag4152    1.0  0.35714  0.28571  0.14286  1.0000
  Ag  Ag4153    1.0  0.35714  0.32143  0.17857  1.0000
  Ag  Ag4154    1.0  0.39286  0.28571  0.17857  1.0000
  Ag  Ag4155    1.0  0.39286  0.32143  0.14286  1.0000
  Ag  Ag4156    1.0  0.35714  0.28571  0.21429  1.0000
  Ag  Ag4157    1.0  0.35714  0.32143  0.25000  1.0000
  Ag  Ag4158    1.0  0.39286  0.28571  0.25000  1.0000
  Ag  Ag4159    1.0  0.39286  0.32143  0.21429  1.0000
  Ag  Ag4160    1.0  0.35714  0.28571  0.28571  1.0000
  Ag  Ag4161    1.0  0.35714  0.32143  0.32143  1.0000
  Ag  Ag4162    1.0  0.39286  0.28571  0.32143  1.0000
  Ag  Ag4163    1.0  0.39286  0.32143  0.28571  1.0000
  Ag  Ag4164    1.0  0.35714  0.28571  0.35714  1.0000
  Ag  Ag4165    1.0  0.35714  0.32143  0.39286  1.0000
  Ag  Ag4166    1.0  0.39286  0.28571  0.39286  1.0000
  Ag  Ag4167    1.0  0.39286  0.32143  0.35714  1.0000
  Ag  Ag4168    1.0  0.35714  0.28571  0.42857  1.0000
  Ag  Ag4169    1.0  0.35714  0.32143  0.46429  1.0000
  Ag  Ag4170    1.0  0.39286  0.28571  0.46429  1.0000
  Ag  Ag4171    1.0  0.39286  0.32143  0.42857  1.0000
  Ag  Ag4172    1.0  0.35714  0.28571  0.50000  1.0000
  Ag  Ag4173    1.0  0.35714  0.32143  0.53571  1.0000
  Ag  Ag4174    1.0  0.39286  0.28571  0.53571  1.0000
  Ag  Ag4175    1.0  0.39286  0.32143  0.50000  1.0000
  Ag  Ag4176    1.0  0.35714  0.28571  0.57143  1.0000
  Ag  Ag4177    1.0  0.35714  0.32143  0.60714  1.0000
  Ag  Ag4178    1.0  0.39286  0.28571  0.60714  1.0000
  Ag  Ag4179    1.0  0.39286  0.32143  0.57143  1.0000
  Ag  Ag4180    1.0  0.35714  0.28571  0.64286  1.0000
  Ag  Ag4181    1.0  0.35714  0.32143  0.67857  1.0000
  Ag  Ag4182    1.0  0.39286  0.28571  0.67857  1.0000
  Ag  Ag4183    1.0  0.39286  0.32143  0.64286  1.0000
  Ag  Ag4184    1.0  0.35714  0.28571  0.71429  1.0000
  Ag  Ag4185    1.0  0.35714  0.32143  0.75000  1.0000
  Ag  Ag4186    1.0  0.39286  0.28571  0.75000  1.0000
  Ag  Ag4187    1.0  0.39286  0.32143  0.71429  1.0000
  Ag  Ag4188    1.0  0.35714  0.28571  0.78571  1.0000
  Ag  Ag4189    1.0  0.35714  0.32143  0.82143  1.0000
  Ag  Ag4190    1.0  0.39286  0.28571  0.82143  1.0000
  Ag  Ag4191    1.0  0.39286  0.32143  0.78571  1.0000
  Ag  Ag4192    1.0  0.35714  0.28571  0.85714  1.0000
  Ag  Ag4193    1.0  0.35714  0.32143  0.89286  1.0000
  Ag  Ag4194    1.0  0.39286  0.28571  0.89286  1.0000
  Ag  Ag4195    1.0  0.39286  0.32143  0.85714  1.0000
  Ag  Ag4196    1.0  0.35714  0.28571  0.92857  1.0000
  Ag  Ag4197    1.0  0.35714  0.32143  0.96429  1.0000
  Ag  Ag4198    1.0  0.39286  0.28571  0.96429  1.0000
  Ag  Ag4199    1.0  0.39286  0.32143  0.92857  1.0000
  Ag  Ag4200    1.0  0.35714  0.35714  0.00000  1.0000
  Ag  Ag4201    1.0  0.35714  0.39286  0.03571  1.0000
  Ag  Ag4202    1.0  0.39286  0.35714  0.03571  1.0000
  Ag  Ag4203    1.0  0.39286  0.39286  0.00000  1.0000
  Ag  Ag4204    1.0  0.35714  0.35714  0.07143  1.0000
  Ag  Ag4205    1.0  0.35714  0.39286  0.10714  1.0000
  Ag  Ag4206    1.0  0.39286  0.35714  0.10714  1.0000
  Ag  Ag4207    1.0  0.39286  0.39286  0.07143  1.0000
  Ag  Ag4208    1.0  0.35714  0.35714  0.14286  1.0000
  Ag  Ag4209    1.0  0.35714  0.39286  0.17857  1.0000
  Ag  Ag4210    1.0  0.39286  0.35714  0.17857  1.0000
  Ag  Ag4211    1.0  0.39286  0.39286  0.14286  1.0000
  Ag  Ag4212    1.0  0.35714  0.35714  0.21429  1.0000
  Ag  Ag4213    1.0  0.35714  0.39286  0.25000  1.0000
  Ag  Ag4214    1.0  0.39286  0.35714  0.25000  1.0000
  Ag  Ag4215    1.0  0.39286  0.39286  0.21429  1.0000
  Ag  Ag4216    1.0  0.35714  0.35714  0.28571  1.0000
  Ag  Ag4217    1.0  0.35714  0.39286  0.32143  1.0000
  Ag  Ag4218    1.0  0.39286  0.35714  0.32143  1.0000
  Ag  Ag4219    1.0  0.39286  0.39286  0.28571  1.0000
  Ag  Ag4220    1.0  0.35714  0.35714  0.35714  1.0000
  Ag  Ag4221    1.0  0.35714  0.39286  0.39286  1.0000
  Ag  Ag4222    1.0  0.39286  0.35714  0.39286  1.0000
  Ag  Ag4223    1.0  0.39286  0.39286  0.35714  1.0000
  Ag  Ag4224    1.0  0.35714  0.35714  0.42857  1.0000
  Ag  Ag4225    1.0  0.35714  0.39286  0.46429  1.0000
  Ag  Ag4226    1.0  0.39286  0.35714  0.46429  1.0000
  Ag  Ag4227    1.0  0.39286  0.39286  0.42857  1.0000
  Ag  Ag4228    1.0  0.35714  0.35714  0.50000  1.0000
  Ag  Ag4229    1.0  0.35714  0.39286  0.53571  1.0000
  Ag  Ag4230    1.0  0.39286  0.35714  0.53571  1.0000
  Ag  Ag4231    1.0  0.39286  0.39286  0.50000  1.0000
  Ag  Ag4232    1.0  0.35714  0.35714  0.57143  1.0000
  Ag  Ag4233    1.0  0.35714  0.39286  0.60714  1.0000
  Ag  Ag4234    1.0  0.39286  0.35714  0.60714  1.0000
  Ag  Ag4235    1.0  0.39286  0.39286  0.57143  1.0000
  Ag  Ag4236    1.0  0.35714  0.35714  0.64286  1.0000
  Ag  Ag4237    1.0  0.35714  0.39286  0.67857  1.0000
  Ag  Ag4238    1.0  0.39286  0.35714  0.67857  1.0000
  Ag  Ag4239    1.0  0.39286  0.39286  0.64286  1.0000
  Ag  Ag4240    1.0  0.35714  0.35714  0.71429  1.0000
  Ag  Ag4241    1.0  0.35714  0.39286  0.75000  1.0000
  Ag  Ag4242    1.0  0.39286  0.35714  0.75000  1.0000
  Ag  Ag4243    1.0  0.39286  0.39286  0.71429  1.0000
  Ag  Ag4244    1.0  0.35714  0.35714  0.78571  1.0000
  Ag  Ag4245    1.0  0.35714  0.39286  0.82143  1.0000
  Ag  Ag4246    1.0  0.39286  0.35714  0.82143  1.0000
  Ag  Ag4247    1.0  0.39286  0.39286  0.78571  1.0000
  Ag  Ag4248    1.0  0.35714  0.35714  0.85714  1.0000
  Ag  Ag4249    1.0  0.35714  0.39286  0.89286  1.0000
  Ag  Ag4250    1.0  0.39286  0.35714  0.89286  1.0000
  Ag  Ag4251    1.0  0.39286  0.39286  0.85714  1.0000
  Ag  Ag4252    1.0  0.35714  0.35714  0.92857  1.0000
  Ag  Ag4253    1.0  0.35714  0.39286  0.96429  1.0000
  Ag  Ag4254    1.0  0.39286  0.35714  0.96429  1.0000
  Ag  Ag4255    1.0  0.39286  0.39286  0.92857  1.0000
  Ag  Ag4256    1.0  0.35714  0.42857  0.00000  1.0000
  Ag  Ag4257    1.0  0.35714  0.46429  0.03571  1.0000
  Ag  Ag4258    1.0  0.39286  0.42857  0.03571  1.0000
  Ag  Ag4259    1.0  0.39286  0.46429  0.00000  1.0000
  Ag  Ag4260    1.0  0.35714  0.42857  0.07143  1.0000
  Ag  Ag4261    1.0  0.35714  0.46429  0.10714  1.0000
  Ag  Ag4262    1.0  0.39286  0.42857  0.10714  1.0000
  Ag  Ag4263    1.0  0.39286  0.46429  0.07143  1.0000
  Ag  Ag4264    1.0  0.35714  0.42857  0.14286  1.0000
  Ag  Ag4265    1.0  0.35714  0.46429  0.17857  1.0000
  Ag  Ag4266    1.0  0.39286  0.42857  0.17857  1.0000
  Ag  Ag4267    1.0  0.39286  0.46429  0.14286  1.0000
  Ag  Ag4268    1.0  0.35714  0.42857  0.21429  1.0000
  Ag  Ag4269    1.0  0.35714  0.46429  0.25000  1.0000
  Ag  Ag4270    1.0  0.39286  0.42857  0.25000  1.0000
  Ag  Ag4271    1.0  0.39286  0.46429  0.21429  1.0000
  Ag  Ag4272    1.0  0.35714  0.42857  0.28571  1.0000
  Ag  Ag4273    1.0  0.35714  0.46429  0.32143  1.0000
  Ag  Ag4274    1.0  0.39286  0.42857  0.32143  1.0000
  Ag  Ag4275    1.0  0.39286  0.46429  0.28571  1.0000
  Ag  Ag4276    1.0  0.35714  0.42857  0.35714  1.0000
  Ag  Ag4277    1.0  0.35714  0.46429  0.39286  1.0000
  Ag  Ag4278    1.0  0.39286  0.42857  0.39286  1.0000
  Ag  Ag4279    1.0  0.39286  0.46429  0.35714  1.0000
  Ag  Ag4280    1.0  0.35714  0.42857  0.42857  1.0000
  Ag  Ag4281    1.0  0.35714  0.46429  0.46429  1.0000
  Ag  Ag4282    1.0  0.39286  0.42857  0.46429  1.0000
  Ag  Ag4283    1.0  0.39286  0.46429  0.42857  1.0000
  Ag  Ag4284    1.0  0.35714  0.42857  0.50000  1.0000
  Ag  Ag4285    1.0  0.35714  0.46429  0.53571  1.0000
  Ag  Ag4286    1.0  0.39286  0.42857  0.53571  1.0000
  Ag  Ag4287    1.0  0.39286  0.46429  0.50000  1.0000
  Ag  Ag4288    1.0  0.35714  0.42857  0.57143  1.0000
  Ag  Ag4289    1.0  0.35714  0.46429  0.60714  1.0000
  Ag  Ag4290    1.0  0.39286  0.42857  0.60714  1.0000
  Ag  Ag4291    1.0  0.39286  0.46429  0.57143  1.0000
  Ag  Ag4292    1.0  0.35714  0.42857  0.64286  1.0000
  Ag  Ag4293    1.0  0.35714  0.46429  0.67857  1.0000
  Ag  Ag4294    1.0  0.39286  0.42857  0.67857  1.0000
  Ag  Ag4295    1.0  0.39286  0.46429  0.64286  1.0000
  Ag  Ag4296    1.0  0.35714  0.42857  0.71429  1.0000
  Ag  Ag4297    1.0  0.35714  0.46429  0.75000  1.0000
  Ag  Ag4298    1.0  0.39286  0.42857  0.75000  1.0000
  Ag  Ag4299    1.0  0.39286  0.46429  0.71429  1.0000
  Ag  Ag4300    1.0  0.35714  0.42857  0.78571  1.0000
  Ag  Ag4301    1.0  0.35714  0.46429  0.82143  1.0000
  Ag  Ag4302    1.0  0.39286  0.42857  0.82143  1.0000
  Ag  Ag4303    1.0  0.39286  0.46429  0.78571  1.0000
  Ag  Ag4304    1.0  0.35714  0.42857  0.85714  1.0000
  Ag  Ag4305    1.0  0.35714  0.46429  0.89286  1.0000
  Ag  Ag4306    1.0  0.39286  0.42857  0.89286  1.0000
  Ag  Ag4307    1.0  0.39286  0.46429  0.85714  1.0000
  Ag  Ag4308    1.0  0.35714  0.42857  0.92857  1.0000
  Ag  Ag4309    1.0  0.35714  0.46429  0.96429  1.0000
  Ag  Ag4310    1.0  0.39286  0.42857  0.96429  1.0000
  Ag  Ag4311    1.0  0.39286  0.46429  0.92857  1.0000
  Ag  Ag4312    1.0  0.35714  0.50000  0.00000  1.0000
  Ag  Ag4313    1.0  0.35714  0.53571  0.03571  1.0000
  Ag  Ag4314    1.0  0.39286  0.50000  0.03571  1.0000
  Ag  Ag4315    1.0  0.39286  0.53571  0.00000  1.0000
  Ag  Ag4316    1.0  0.35714  0.50000  0.07143  1.0000
  Ag  Ag4317    1.0  0.35714  0.53571  0.10714  1.0000
  Ag  Ag4318    1.0  0.39286  0.50000  0.10714  1.0000
  Ag  Ag4319    1.0  0.39286  0.53571  0.07143  1.0000
  Ag  Ag4320    1.0  0.35714  0.50000  0.14286  1.0000
  Ag  Ag4321    1.0  0.35714  0.53571  0.17857  1.0000
  Ag  Ag4322    1.0  0.39286  0.50000  0.17857  1.0000
  Ag  Ag4323    1.0  0.39286  0.53571  0.14286  1.0000
  Ag  Ag4324    1.0  0.35714  0.50000  0.21429  1.0000
  Ag  Ag4325    1.0  0.35714  0.53571  0.25000  1.0000
  Ag  Ag4326    1.0  0.39286  0.50000  0.25000  1.0000
  Ag  Ag4327    1.0  0.39286  0.53571  0.21429  1.0000
  Ag  Ag4328    1.0  0.35714  0.50000  0.28571  1.0000
  Ag  Ag4329    1.0  0.35714  0.53571  0.32143  1.0000
  Ag  Ag4330    1.0  0.39286  0.50000  0.32143  1.0000
  Ag  Ag4331    1.0  0.39286  0.53571  0.28571  1.0000
  Ag  Ag4332    1.0  0.35714  0.50000  0.35714  1.0000
  Ag  Ag4333    1.0  0.35714  0.53571  0.39286  1.0000
  Ag  Ag4334    1.0  0.39286  0.50000  0.39286  1.0000
  Ag  Ag4335    1.0  0.39286  0.53571  0.35714  1.0000
  Ag  Ag4336    1.0  0.35714  0.50000  0.42857  1.0000
  Ag  Ag4337    1.0  0.35714  0.53571  0.46429  1.0000
  Ag  Ag4338    1.0  0.39286  0.50000  0.46429  1.0000
  Ag  Ag4339    1.0  0.39286  0.53571  0.42857  1.0000
  Ag  Ag4340    1.0  0.35714  0.50000  0.50000  1.0000
  Ag  Ag4341    1.0  0.35714  0.53571  0.53571  1.0000
  Ag  Ag4342    1.0  0.39286  0.50000  0.53571  1.0000
  Ag  Ag4343    1.0  0.39286  0.53571  0.50000  1.0000
  Ag  Ag4344    1.0  0.35714  0.50000  0.57143  1.0000
  Ag  Ag4345    1.0  0.35714  0.53571  0.60714  1.0000
  Ag  Ag4346    1.0  0.39286  0.50000  0.60714  1.0000
  Ag  Ag4347    1.0  0.39286  0.53571  0.57143  1.0000
  Ag  Ag4348    1.0  0.35714  0.50000  0.64286  1.0000
  Ag  Ag4349    1.0  0.35714  0.53571  0.67857  1.0000
  Ag  Ag4350    1.0  0.39286  0.50000  0.67857  1.0000
  Ag  Ag4351    1.0  0.39286  0.53571  0.64286  1.0000
  Ag  Ag4352    1.0  0.35714  0.50000  0.71429  1.0000
  Ag  Ag4353    1.0  0.35714  0.53571  0.75000  1.0000
  Ag  Ag4354    1.0  0.39286  0.50000  0.75000  1.0000
  Ag  Ag4355    1.0  0.39286  0.53571  0.71429  1.0000
  Ag  Ag4356    1.0  0.35714  0.50000  0.78571  1.0000
  Ag  Ag4357    1.0  0.35714  0.53571  0.82143  1.0000
  Ag  Ag4358    1.0  0.39286  0.50000  0.82143  1.0000
  Ag  Ag4359    1.0  0.39286  0.53571  0.78571  1.0000
  Ag  Ag4360    1.0  0.35714  0.50000  0.85714  1.0000
  Ag  Ag4361    1.0  0.35714  0.53571  0.89286  1.0000
  Ag  Ag4362    1.0  0.39286  0.50000  0.89286  1.0000
  Ag  Ag4363    1.0  0.39286  0.53571  0.85714  1.0000
  Ag  Ag4364    1.0  0.35714  0.50000  0.92857  1.0000
  Ag  Ag4365    1.0  0.35714  0.53571  0.96429  1.0000
  Ag  Ag4366    1.0  0.39286  0.50000  0.96429  1.0000
  Ag  Ag4367    1.0  0.39286  0.53571  0.92857  1.0000
  Ag  Ag4368    1.0  0.35714  0.57143  0.00000  1.0000
  Ag  Ag4369    1.0  0.35714  0.60714  0.03571  1.0000
  Ag  Ag4370    1.0  0.39286  0.57143  0.03571  1.0000
  Ag  Ag4371    1.0  0.39286  0.60714  0.00000  1.0000
  Ag  Ag4372    1.0  0.35714  0.57143  0.07143  1.0000
  Ag  Ag4373    1.0  0.35714  0.60714  0.10714  1.0000
  Ag  Ag4374    1.0  0.39286  0.57143  0.10714  1.0000
  Ag  Ag4375    1.0  0.39286  0.60714  0.07143  1.0000
  Ag  Ag4376    1.0  0.35714  0.57143  0.14286  1.0000
  Ag  Ag4377    1.0  0.35714  0.60714  0.17857  1.0000
  Ag  Ag4378    1.0  0.39286  0.57143  0.17857  1.0000
  Ag  Ag4379    1.0  0.39286  0.60714  0.14286  1.0000
  Ag  Ag4380    1.0  0.35714  0.57143  0.21429  1.0000
  Ag  Ag4381    1.0  0.35714  0.60714  0.25000  1.0000
  Ag  Ag4382    1.0  0.39286  0.57143  0.25000  1.0000
  Ag  Ag4383    1.0  0.39286  0.60714  0.21429  1.0000
  Ag  Ag4384    1.0  0.35714  0.57143  0.28571  1.0000
  Ag  Ag4385    1.0  0.35714  0.60714  0.32143  1.0000
  Ag  Ag4386    1.0  0.39286  0.57143  0.32143  1.0000
  Ag  Ag4387    1.0  0.39286  0.60714  0.28571  1.0000
  Ag  Ag4388    1.0  0.35714  0.57143  0.35714  1.0000
  Ag  Ag4389    1.0  0.35714  0.60714  0.39286  1.0000
  Ag  Ag4390    1.0  0.39286  0.57143  0.39286  1.0000
  Ag  Ag4391    1.0  0.39286  0.60714  0.35714  1.0000
  Ag  Ag4392    1.0  0.35714  0.57143  0.42857  1.0000
  Ag  Ag4393    1.0  0.35714  0.60714  0.46429  1.0000
  Ag  Ag4394    1.0  0.39286  0.57143  0.46429  1.0000
  Ag  Ag4395    1.0  0.39286  0.60714  0.42857  1.0000
  Ag  Ag4396    1.0  0.35714  0.57143  0.50000  1.0000
  Ag  Ag4397    1.0  0.35714  0.60714  0.53571  1.0000
  Ag  Ag4398    1.0  0.39286  0.57143  0.53571  1.0000
  Ag  Ag4399    1.0  0.39286  0.60714  0.50000  1.0000
  Ag  Ag4400    1.0  0.35714  0.57143  0.57143  1.0000
  Ag  Ag4401    1.0  0.35714  0.60714  0.60714  1.0000
  Ag  Ag4402    1.0  0.39286  0.57143  0.60714  1.0000
  Ag  Ag4403    1.0  0.39286  0.60714  0.57143  1.0000
  Ag  Ag4404    1.0  0.35714  0.57143  0.64286  1.0000
  Ag  Ag4405    1.0  0.35714  0.60714  0.67857  1.0000
  Ag  Ag4406    1.0  0.39286  0.57143  0.67857  1.0000
  Ag  Ag4407    1.0  0.39286  0.60714  0.64286  1.0000
  Ag  Ag4408    1.0  0.35714  0.57143  0.71429  1.0000
  Ag  Ag4409    1.0  0.35714  0.60714  0.75000  1.0000
  Ag  Ag4410    1.0  0.39286  0.57143  0.75000  1.0000
  Ag  Ag4411    1.0  0.39286  0.60714  0.71429  1.0000
  Ag  Ag4412    1.0  0.35714  0.57143  0.78571  1.0000
  Ag  Ag4413    1.0  0.35714  0.60714  0.82143  1.0000
  Ag  Ag4414    1.0  0.39286  0.57143  0.82143  1.0000
  Ag  Ag4415    1.0  0.39286  0.60714  0.78571  1.0000
  Ag  Ag4416    1.0  0.35714  0.57143  0.85714  1.0000
  Ag  Ag4417    1.0  0.35714  0.60714  0.89286  1.0000
  Ag  Ag4418    1.0  0.39286  0.57143  0.89286  1.0000
  Ag  Ag4419    1.0  0.39286  0.60714  0.85714  1.0000
  Ag  Ag4420    1.0  0.35714  0.57143  0.92857  1.0000
  Ag  Ag4421    1.0  0.35714  0.60714  0.96429  1.0000
  Ag  Ag4422    1.0  0.39286  0.57143  0.96429  1.0000
  Ag  Ag4423    1.0  0.39286  0.60714  0.92857  1.0000
  Ag  Ag4424    1.0  0.35714  0.64286  0.00000  1.0000
  Ag  Ag4425    1.0  0.35714  0.67857  0.03571  1.0000
  Ag  Ag4426    1.0  0.39286  0.64286  0.03571  1.0000
  Ag  Ag4427    1.0  0.39286  0.67857  0.00000  1.0000
  Ag  Ag4428    1.0  0.35714  0.64286  0.07143  1.0000
  Ag  Ag4429    1.0  0.35714  0.67857  0.10714  1.0000
  Ag  Ag4430    1.0  0.39286  0.64286  0.10714  1.0000
  Ag  Ag4431    1.0  0.39286  0.67857  0.07143  1.0000
  Ag  Ag4432    1.0  0.35714  0.64286  0.14286  1.0000
  Ag  Ag4433    1.0  0.35714  0.67857  0.17857  1.0000
  Ag  Ag4434    1.0  0.39286  0.64286  0.17857  1.0000
  Ag  Ag4435    1.0  0.39286  0.67857  0.14286  1.0000
  Ag  Ag4436    1.0  0.35714  0.64286  0.21429  1.0000
  Ag  Ag4437    1.0  0.35714  0.67857  0.25000  1.0000
  Ag  Ag4438    1.0  0.39286  0.64286  0.25000  1.0000
  Ag  Ag4439    1.0  0.39286  0.67857  0.21429  1.0000
  Ag  Ag4440    1.0  0.35714  0.64286  0.28571  1.0000
  Ag  Ag4441    1.0  0.35714  0.67857  0.32143  1.0000
  Ag  Ag4442    1.0  0.39286  0.64286  0.32143  1.0000
  Ag  Ag4443    1.0  0.39286  0.67857  0.28571  1.0000
  Ag  Ag4444    1.0  0.35714  0.64286  0.35714  1.0000
  Ag  Ag4445    1.0  0.35714  0.67857  0.39286  1.0000
  Ag  Ag4446    1.0  0.39286  0.64286  0.39286  1.0000
  Ag  Ag4447    1.0  0.39286  0.67857  0.35714  1.0000
  Ag  Ag4448    1.0  0.35714  0.64286  0.42857  1.0000
  Ag  Ag4449    1.0  0.35714  0.67857  0.46429  1.0000
  Ag  Ag4450    1.0  0.39286  0.64286  0.46429  1.0000
  Ag  Ag4451    1.0  0.39286  0.67857  0.42857  1.0000
  Ag  Ag4452    1.0  0.35714  0.64286  0.50000  1.0000
  Ag  Ag4453    1.0  0.35714  0.67857  0.53571  1.0000
  Ag  Ag4454    1.0  0.39286  0.64286  0.53571  1.0000
  Ag  Ag4455    1.0  0.39286  0.67857  0.50000  1.0000
  Ag  Ag4456    1.0  0.35714  0.64286  0.57143  1.0000
  Ag  Ag4457    1.0  0.35714  0.67857  0.60714  1.0000
  Ag  Ag4458    1.0  0.39286  0.64286  0.60714  1.0000
  Ag  Ag4459    1.0  0.39286  0.67857  0.57143  1.0000
  Ag  Ag4460    1.0  0.35714  0.64286  0.64286  1.0000
  Ag  Ag4461    1.0  0.35714  0.67857  0.67857  1.0000
  Ag  Ag4462    1.0  0.39286  0.64286  0.67857  1.0000
  Ag  Ag4463    1.0  0.39286  0.67857  0.64286  1.0000
  Ag  Ag4464    1.0  0.35714  0.64286  0.71429  1.0000
  Ag  Ag4465    1.0  0.35714  0.67857  0.75000  1.0000
  Ag  Ag4466    1.0  0.39286  0.64286  0.75000  1.0000
  Ag  Ag4467    1.0  0.39286  0.67857  0.71429  1.0000
  Ag  Ag4468    1.0  0.35714  0.64286  0.78571  1.0000
  Ag  Ag4469    1.0  0.35714  0.67857  0.82143  1.0000
  Ag  Ag4470    1.0  0.39286  0.64286  0.82143  1.0000
  Ag  Ag4471    1.0  0.39286  0.67857  0.78571  1.0000
  Ag  Ag4472    1.0  0.35714  0.64286  0.85714  1.0000
  Ag  Ag4473    1.0  0.35714  0.67857  0.89286  1.0000
  Ag  Ag4474    1.0  0.39286  0.64286  0.89286  1.0000
  Ag  Ag4475    1.0  0.39286  0.67857  0.85714  1.0000
  Ag  Ag4476    1.0  0.35714  0.64286  0.92857  1.0000
  Ag  Ag4477    1.0  0.35714  0.67857  0.96429  1.0000
  Ag  Ag4478    1.0  0.39286  0.64286  0.96429  1.0000
  Ag  Ag4479    1.0  0.39286  0.67857  0.92857  1.0000
  Ag  Ag4480    1.0  0.35714  0.71429  0.00000  1.0000
  Ag  Ag4481    1.0  0.35714  0.75000  0.03571  1.0000
  Ag  Ag4482    1.0  0.39286  0.71429  0.03571  1.0000
  Ag  Ag4483    1.0  0.39286  0.75000  0.00000  1.0000
  Ag  Ag4484    1.0  0.35714  0.71429  0.07143  1.0000
  Ag  Ag4485    1.0  0.35714  0.75000  0.10714  1.0000
  Ag  Ag4486    1.0  0.39286  0.71429  0.10714  1.0000
  Ag  Ag4487    1.0  0.39286  0.75000  0.07143  1.0000
  Ag  Ag4488    1.0  0.35714  0.71429  0.14286  1.0000
  Ag  Ag4489    1.0  0.35714  0.75000  0.17857  1.0000
  Ag  Ag4490    1.0  0.39286  0.71429  0.17857  1.0000
  Ag  Ag4491    1.0  0.39286  0.75000  0.14286  1.0000
  Ag  Ag4492    1.0  0.35714  0.71429  0.21429  1.0000
  Ag  Ag4493    1.0  0.35714  0.75000  0.25000  1.0000
  Ag  Ag4494    1.0  0.39286  0.71429  0.25000  1.0000
  Ag  Ag4495    1.0  0.39286  0.75000  0.21429  1.0000
  Ag  Ag4496    1.0  0.35714  0.71429  0.28571  1.0000
  Ag  Ag4497    1.0  0.35714  0.75000  0.32143  1.0000
  Ag  Ag4498    1.0  0.39286  0.71429  0.32143  1.0000
  Ag  Ag4499    1.0  0.39286  0.75000  0.28571  1.0000
  Ag  Ag4500    1.0  0.35714  0.71429  0.35714  1.0000
  Ag  Ag4501    1.0  0.35714  0.75000  0.39286  1.0000
  Ag  Ag4502    1.0  0.39286  0.71429  0.39286  1.0000
  Ag  Ag4503    1.0  0.39286  0.75000  0.35714  1.0000
  Ag  Ag4504    1.0  0.35714  0.71429  0.42857  1.0000
  Ag  Ag4505    1.0  0.35714  0.75000  0.46429  1.0000
  Ag  Ag4506    1.0  0.39286  0.71429  0.46429  1.0000
  Ag  Ag4507    1.0  0.39286  0.75000  0.42857  1.0000
  Ag  Ag4508    1.0  0.35714  0.71429  0.50000  1.0000
  Ag  Ag4509    1.0  0.35714  0.75000  0.53571  1.0000
  Ag  Ag4510    1.0  0.39286  0.71429  0.53571  1.0000
  Ag  Ag4511    1.0  0.39286  0.75000  0.50000  1.0000
  Ag  Ag4512    1.0  0.35714  0.71429  0.57143  1.0000
  Ag  Ag4513    1.0  0.35714  0.75000  0.60714  1.0000
  Ag  Ag4514    1.0  0.39286  0.71429  0.60714  1.0000
  Ag  Ag4515    1.0  0.39286  0.75000  0.57143  1.0000
  Ag  Ag4516    1.0  0.35714  0.71429  0.64286  1.0000
  Ag  Ag4517    1.0  0.35714  0.75000  0.67857  1.0000
  Ag  Ag4518    1.0  0.39286  0.71429  0.67857  1.0000
  Ag  Ag4519    1.0  0.39286  0.75000  0.64286  1.0000
  Ag  Ag4520    1.0  0.35714  0.71429  0.71429  1.0000
  Ag  Ag4521    1.0  0.35714  0.75000  0.75000  1.0000
  Ag  Ag4522    1.0  0.39286  0.71429  0.75000  1.0000
  Ag  Ag4523    1.0  0.39286  0.75000  0.71429  1.0000
  Ag  Ag4524    1.0  0.35714  0.71429  0.78571  1.0000
  Ag  Ag4525    1.0  0.35714  0.75000  0.82143  1.0000
  Ag  Ag4526    1.0  0.39286  0.71429  0.82143  1.0000
  Ag  Ag4527    1.0  0.39286  0.75000  0.78571  1.0000
  Ag  Ag4528    1.0  0.35714  0.71429  0.85714  1.0000
  Ag  Ag4529    1.0  0.35714  0.75000  0.89286  1.0000
  Ag  Ag4530    1.0  0.39286  0.71429  0.89286  1.0000
  Ag  Ag4531    1.0  0.39286  0.75000  0.85714  1.0000
  Ag  Ag4532    1.0  0.35714  0.71429  0.92857  1.0000
  Ag  Ag4533    1.0  0.35714  0.75000  0.96429  1.0000
  Ag  Ag4534    1.0  0.39286  0.71429  0.96429  1.0000
  Ag  Ag4535    1.0  0.39286  0.75000  0.92857  1.0000
  Ag  Ag4536    1.0  0.35714  0.78571  0.00000  1.0000
  Ag  Ag4537    1.0  0.35714  0.82143  0.03571  1.0000
  Ag  Ag4538    1.0  0.39286  0.78571  0.03571  1.0000
  Ag  Ag4539    1.0  0.39286  0.82143  0.00000  1.0000
  Ag  Ag4540    1.0  0.35714  0.78571  0.07143  1.0000
  Ag  Ag4541    1.0  0.35714  0.82143  0.10714  1.0000
  Ag  Ag4542    1.0  0.39286  0.78571  0.10714  1.0000
  Ag  Ag4543    1.0  0.39286  0.82143  0.07143  1.0000
  Ag  Ag4544    1.0  0.35714  0.78571  0.14286  1.0000
  Ag  Ag4545    1.0  0.35714  0.82143  0.17857  1.0000
  Ag  Ag4546    1.0  0.39286  0.78571  0.17857  1.0000
  Ag  Ag4547    1.0  0.39286  0.82143  0.14286  1.0000
  Ag  Ag4548    1.0  0.35714  0.78571  0.21429  1.0000
  Ag  Ag4549    1.0  0.35714  0.82143  0.25000  1.0000
  Ag  Ag4550    1.0  0.39286  0.78571  0.25000  1.0000
  Ag  Ag4551    1.0  0.39286  0.82143  0.21429  1.0000
  Ag  Ag4552    1.0  0.35714  0.78571  0.28571  1.0000
  Ag  Ag4553    1.0  0.35714  0.82143  0.32143  1.0000
  Ag  Ag4554    1.0  0.39286  0.78571  0.32143  1.0000
  Ag  Ag4555    1.0  0.39286  0.82143  0.28571  1.0000
  Ag  Ag4556    1.0  0.35714  0.78571  0.35714  1.0000
  Ag  Ag4557    1.0  0.35714  0.82143  0.39286  1.0000
  Ag  Ag4558    1.0  0.39286  0.78571  0.39286  1.0000
  Ag  Ag4559    1.0  0.39286  0.82143  0.35714  1.0000
  Ag  Ag4560    1.0  0.35714  0.78571  0.42857  1.0000
  Ag  Ag4561    1.0  0.35714  0.82143  0.46429  1.0000
  Ag  Ag4562    1.0  0.39286  0.78571  0.46429  1.0000
  Ag  Ag4563    1.0  0.39286  0.82143  0.42857  1.0000
  Ag  Ag4564    1.0  0.35714  0.78571  0.50000  1.0000
  Ag  Ag4565    1.0  0.35714  0.82143  0.53571  1.0000
  Ag  Ag4566    1.0  0.39286  0.78571  0.53571  1.0000
  Ag  Ag4567    1.0  0.39286  0.82143  0.50000  1.0000
  Ag  Ag4568    1.0  0.35714  0.78571  0.57143  1.0000
  Ag  Ag4569    1.0  0.35714  0.82143  0.60714  1.0000
  Ag  Ag4570    1.0  0.39286  0.78571  0.60714  1.0000
  Ag  Ag4571    1.0  0.39286  0.82143  0.57143  1.0000
  Ag  Ag4572    1.0  0.35714  0.78571  0.64286  1.0000
  Ag  Ag4573    1.0  0.35714  0.82143  0.67857  1.0000
  Ag  Ag4574    1.0  0.39286  0.78571  0.67857  1.0000
  Ag  Ag4575    1.0  0.39286  0.82143  0.64286  1.0000
  Ag  Ag4576    1.0  0.35714  0.78571  0.71429  1.0000
  Ag  Ag4577    1.0  0.35714  0.82143  0.75000  1.0000
  Ag  Ag4578    1.0  0.39286  0.78571  0.75000  1.0000
  Ag  Ag4579    1.0  0.39286  0.82143  0.71429  1.0000
  Ag  Ag4580    1.0  0.35714  0.78571  0.78571  1.0000
  Ag  Ag4581    1.0  0.35714  0.82143  0.82143  1.0000
  Ag  Ag4582    1.0  0.39286  0.78571  0.82143  1.0000
  Ag  Ag4583    1.0  0.39286  0.82143  0.78571  1.0000
  Ag  Ag4584    1.0  0.35714  0.78571  0.85714  1.0000
  Ag  Ag4585    1.0  0.35714  0.82143  0.89286  1.0000
  Ag  Ag4586    1.0  0.39286  0.78571  0.89286  1.0000
  Ag  Ag4587    1.0  0.39286  0.82143  0.85714  1.0000
  Ag  Ag4588    1.0  0.35714  0.78571  0.92857  1.0000
  Ag  Ag4589    1.0  0.35714  0.82143  0.96429  1.0000
  Ag  Ag4590    1.0  0.39286  0.78571  0.96429  1.0000
  Ag  Ag4591    1.0  0.39286  0.82143  0.92857  1.0000
  Ag  Ag4592    1.0  0.35714  0.85714  0.00000  1.0000
  Ag  Ag4593    1.0  0.35714  0.89286  0.03571  1.0000
  Ag  Ag4594    1.0  0.39286  0.85714  0.03571  1.0000
  Ag  Ag4595    1.0  0.39286  0.89286  0.00000  1.0000
  Ag  Ag4596    1.0  0.35714  0.85714  0.07143  1.0000
  Ag  Ag4597    1.0  0.35714  0.89286  0.10714  1.0000
  Ag  Ag4598    1.0  0.39286  0.85714  0.10714  1.0000
  Ag  Ag4599    1.0  0.39286  0.89286  0.07143  1.0000
  Ag  Ag4600    1.0  0.35714  0.85714  0.14286  1.0000
  Ag  Ag4601    1.0  0.35714  0.89286  0.17857  1.0000
  Ag  Ag4602    1.0  0.39286  0.85714  0.17857  1.0000
  Ag  Ag4603    1.0  0.39286  0.89286  0.14286  1.0000
  Ag  Ag4604    1.0  0.35714  0.85714  0.21429  1.0000
  Ag  Ag4605    1.0  0.35714  0.89286  0.25000  1.0000
  Ag  Ag4606    1.0  0.39286  0.85714  0.25000  1.0000
  Ag  Ag4607    1.0  0.39286  0.89286  0.21429  1.0000
  Ag  Ag4608    1.0  0.35714  0.85714  0.28571  1.0000
  Ag  Ag4609    1.0  0.35714  0.89286  0.32143  1.0000
  Ag  Ag4610    1.0  0.39286  0.85714  0.32143  1.0000
  Ag  Ag4611    1.0  0.39286  0.89286  0.28571  1.0000
  Ag  Ag4612    1.0  0.35714  0.85714  0.35714  1.0000
  Ag  Ag4613    1.0  0.35714  0.89286  0.39286  1.0000
  Ag  Ag4614    1.0  0.39286  0.85714  0.39286  1.0000
  Ag  Ag4615    1.0  0.39286  0.89286  0.35714  1.0000
  Ag  Ag4616    1.0  0.35714  0.85714  0.42857  1.0000
  Ag  Ag4617    1.0  0.35714  0.89286  0.46429  1.0000
  Ag  Ag4618    1.0  0.39286  0.85714  0.46429  1.0000
  Ag  Ag4619    1.0  0.39286  0.89286  0.42857  1.0000
  Ag  Ag4620    1.0  0.35714  0.85714  0.50000  1.0000
  Ag  Ag4621    1.0  0.35714  0.89286  0.53571  1.0000
  Ag  Ag4622    1.0  0.39286  0.85714  0.53571  1.0000
  Ag  Ag4623    1.0  0.39286  0.89286  0.50000  1.0000
  Ag  Ag4624    1.0  0.35714  0.85714  0.57143  1.0000
  Ag  Ag4625    1.0  0.35714  0.89286  0.60714  1.0000
  Ag  Ag4626    1.0  0.39286  0.85714  0.60714  1.0000
  Ag  Ag4627    1.0  0.39286  0.89286  0.57143  1.0000
  Ag  Ag4628    1.0  0.35714  0.85714  0.64286  1.0000
  Ag  Ag4629    1.0  0.35714  0.89286  0.67857  1.0000
  Ag  Ag4630    1.0  0.39286  0.85714  0.67857  1.0000
  Ag  Ag4631    1.0  0.39286  0.89286  0.64286  1.0000
  Ag  Ag4632    1.0  0.35714  0.85714  0.71429  1.0000
  Ag  Ag4633    1.0  0.35714  0.89286  0.75000  1.0000
  Ag  Ag4634    1.0  0.39286  0.85714  0.75000  1.0000
  Ag  Ag4635    1.0  0.39286  0.89286  0.71429  1.0000
  Ag  Ag4636    1.0  0.35714  0.85714  0.78571  1.0000
  Ag  Ag4637    1.0  0.35714  0.89286  0.82143  1.0000
  Ag  Ag4638    1.0  0.39286  0.85714  0.82143  1.0000
  Ag  Ag4639    1.0  0.39286  0.89286  0.78571  1.0000
  Ag  Ag4640    1.0  0.35714  0.85714  0.85714  1.0000
  Ag  Ag4641    1.0  0.35714  0.89286  0.89286  1.0000
  Ag  Ag4642    1.0  0.39286  0.85714  0.89286  1.0000
  Ag  Ag4643    1.0  0.39286  0.89286  0.85714  1.0000
  Ag  Ag4644    1.0  0.35714  0.85714  0.92857  1.0000
  Ag  Ag4645    1.0  0.35714  0.89286  0.96429  1.0000
  Ag  Ag4646    1.0  0.39286  0.85714  0.96429  1.0000
  Ag  Ag4647    1.0  0.39286  0.89286  0.92857  1.0000
  Ag  Ag4648    1.0  0.35714  0.92857  0.00000  1.0000
  Ag  Ag4649    1.0  0.35714  0.96429  0.03571  1.0000
  Ag  Ag4650    1.0  0.39286  0.92857  0.03571  1.0000
  Ag  Ag4651    1.0  0.39286  0.96429  0.00000  1.0000
  Ag  Ag4652    1.0  0.35714  0.92857  0.07143  1.0000
  Ag  Ag4653    1.0  0.35714  0.96429  0.10714  1.0000
  Ag  Ag4654    1.0  0.39286  0.92857  0.10714  1.0000
  Ag  Ag4655    1.0  0.39286  0.96429  0.07143  1.0000
  Ag  Ag4656    1.0  0.35714  0.92857  0.14286  1.0000
  Ag  Ag4657    1.0  0.35714  0.96429  0.17857  1.0000
  Ag  Ag4658    1.0  0.39286  0.92857  0.17857  1.0000
  Ag  Ag4659    1.0  0.39286  0.96429  0.14286  1.0000
  Ag  Ag4660    1.0  0.35714  0.92857  0.21429  1.0000
  Ag  Ag4661    1.0  0.35714  0.96429  0.25000  1.0000
  Ag  Ag4662    1.0  0.39286  0.92857  0.25000  1.0000
  Ag  Ag4663    1.0  0.39286  0.96429  0.21429  1.0000
  Ag  Ag4664    1.0  0.35714  0.92857  0.28571  1.0000
  Ag  Ag4665    1.0  0.35714  0.96429  0.32143  1.0000
  Ag  Ag4666    1.0  0.39286  0.92857  0.32143  1.0000
  Ag  Ag4667    1.0  0.39286  0.96429  0.28571  1.0000
  Ag  Ag4668    1.0  0.35714  0.92857  0.35714  1.0000
  Ag  Ag4669    1.0  0.35714  0.96429  0.39286  1.0000
  Ag  Ag4670    1.0  0.39286  0.92857  0.39286  1.0000
  Ag  Ag4671    1.0  0.39286  0.96429  0.35714  1.0000
  Ag  Ag4672    1.0  0.35714  0.92857  0.42857  1.0000
  Ag  Ag4673    1.0  0.35714  0.96429  0.46429  1.0000
  Ag  Ag4674    1.0  0.39286  0.92857  0.46429  1.0000
  Ag  Ag4675    1.0  0.39286  0.96429  0.42857  1.0000
  Ag  Ag4676    1.0  0.35714  0.92857  0.50000  1.0000
  Ag  Ag4677    1.0  0.35714  0.96429  0.53571  1.0000
  Ag  Ag4678    1.0  0.39286  0.92857  0.53571  1.0000
  Ag  Ag4679    1.0  0.39286  0.96429  0.50000  1.0000
  Ag  Ag4680    1.0  0.35714  0.92857  0.57143  1.0000
  Ag  Ag4681    1.0  0.35714  0.96429  0.60714  1.0000
  Ag  Ag4682    1.0  0.39286  0.92857  0.60714  1.0000
  Ag  Ag4683    1.0  0.39286  0.96429  0.57143  1.0000
  Ag  Ag4684    1.0  0.35714  0.92857  0.64286  1.0000
  Ag  Ag4685    1.0  0.35714  0.96429  0.67857  1.0000
  Ag  Ag4686    1.0  0.39286  0.92857  0.67857  1.0000
  Ag  Ag4687    1.0  0.39286  0.96429  0.64286  1.0000
  Ag  Ag4688    1.0  0.35714  0.92857  0.71429  1.0000
  Ag  Ag4689    1.0  0.35714  0.96429  0.75000  1.0000
  Ag  Ag4690    1.0  0.39286  0.92857  0.75000  1.0000
  Ag  Ag4691    1.0  0.39286  0.96429  0.71429  1.0000
  Ag  Ag4692    1.0  0.35714  0.92857  0.78571  1.0000
  Ag  Ag4693    1.0  0.35714  0.96429  0.82143  1.0000
  Ag  Ag4694    1.0  0.39286  0.92857  0.82143  1.0000
  Ag  Ag4695    1.0  0.39286  0.96429  0.78571  1.0000
  Ag  Ag4696    1.0  0.35714  0.92857  0.85714  1.0000
  Ag  Ag4697    1.0  0.35714  0.96429  0.89286  1.0000
  Ag  Ag4698    1.0  0.39286  0.92857  0.89286  1.0000
  Ag  Ag4699    1.0  0.39286  0.96429  0.85714  1.0000
  Ag  Ag4700    1.0  0.35714  0.92857  0.92857  1.0000
  Ag  Ag4701    1.0  0.35714  0.96429  0.96429  1.0000
  Ag  Ag4702    1.0  0.39286  0.92857  0.96429  1.0000
  Ag  Ag4703    1.0  0.39286  0.96429  0.92857  1.0000
  Ag  Ag4704    1.0  0.42857  0.00000  0.00000  1.0000
  Ag  Ag4705    1.0  0.42857  0.03571  0.03571  1.0000
  Ag  Ag4706    1.0  0.46429  0.00000  0.03571  1.0000
  Ag  Ag4707    1.0  0.46429  0.03571  0.00000  1.0000
  Ag  Ag4708    1.0  0.42857  0.00000  0.07143  1.0000
  Ag  Ag4709    1.0  0.42857  0.03571  0.10714  1.0000
  Ag  Ag4710    1.0  0.46429  0.00000  0.10714  1.0000
  Ag  Ag4711    1.0  0.46429  0.03571  0.07143  1.0000
  Ag  Ag4712    1.0  0.42857  0.00000  0.14286  1.0000
  Ag  Ag4713    1.0  0.42857  0.03571  0.17857  1.0000
  Ag  Ag4714    1.0  0.46429  0.00000  0.17857  1.0000
  Ag  Ag4715    1.0  0.46429  0.03571  0.14286  1.0000
  Ag  Ag4716    1.0  0.42857  0.00000  0.21429  1.0000
  Ag  Ag4717    1.0  0.42857  0.03571  0.25000  1.0000
  Ag  Ag4718    1.0  0.46429  0.00000  0.25000  1.0000
  Ag  Ag4719    1.0  0.46429  0.03571  0.21429  1.0000
  Ag  Ag4720    1.0  0.42857  0.00000  0.28571  1.0000
  Ag  Ag4721    1.0  0.42857  0.03571  0.32143  1.0000
  Ag  Ag4722    1.0  0.46429  0.00000  0.32143  1.0000
  Ag  Ag4723    1.0  0.46429  0.03571  0.28571  1.0000
  Ag  Ag4724    1.0  0.42857  0.00000  0.35714  1.0000
  Ag  Ag4725    1.0  0.42857  0.03571  0.39286  1.0000
  Ag  Ag4726    1.0  0.46429  0.00000  0.39286  1.0000
  Ag  Ag4727    1.0  0.46429  0.03571  0.35714  1.0000
  Ag  Ag4728    1.0  0.42857  0.00000  0.42857  1.0000
  Ag  Ag4729    1.0  0.42857  0.03571  0.46429  1.0000
  Ag  Ag4730    1.0  0.46429  0.00000  0.46429  1.0000
  Ag  Ag4731    1.0  0.46429  0.03571  0.42857  1.0000
  Ag  Ag4732    1.0  0.42857  0.00000  0.50000  1.0000
  Ag  Ag4733    1.0  0.42857  0.03571  0.53571  1.0000
  Ag  Ag4734    1.0  0.46429  0.00000  0.53571  1.0000
  Ag  Ag4735    1.0  0.46429  0.03571  0.50000  1.0000
  Ag  Ag4736    1.0  0.42857  0.00000  0.57143  1.0000
  Ag  Ag4737    1.0  0.42857  0.03571  0.60714  1.0000
  Ag  Ag4738    1.0  0.46429  0.00000  0.60714  1.0000
  Ag  Ag4739    1.0  0.46429  0.03571  0.57143  1.0000
  Ag  Ag4740    1.0  0.42857  0.00000  0.64286  1.0000
  Ag  Ag4741    1.0  0.42857  0.03571  0.67857  1.0000
  Ag  Ag4742    1.0  0.46429  0.00000  0.67857  1.0000
  Ag  Ag4743    1.0  0.46429  0.03571  0.64286  1.0000
  Ag  Ag4744    1.0  0.42857  0.00000  0.71429  1.0000
  Ag  Ag4745    1.0  0.42857  0.03571  0.75000  1.0000
  Ag  Ag4746    1.0  0.46429  0.00000  0.75000  1.0000
  Ag  Ag4747    1.0  0.46429  0.03571  0.71429  1.0000
  Ag  Ag4748    1.0  0.42857  0.00000  0.78571  1.0000
  Ag  Ag4749    1.0  0.42857  0.03571  0.82143  1.0000
  Ag  Ag4750    1.0  0.46429  0.00000  0.82143  1.0000
  Ag  Ag4751    1.0  0.46429  0.03571  0.78571  1.0000
  Ag  Ag4752    1.0  0.42857  0.00000  0.85714  1.0000
  Ag  Ag4753    1.0  0.42857  0.03571  0.89286  1.0000
  Ag  Ag4754    1.0  0.46429  0.00000  0.89286  1.0000
  Ag  Ag4755    1.0  0.46429  0.03571  0.85714  1.0000
  Ag  Ag4756    1.0  0.42857  0.00000  0.92857  1.0000
  Ag  Ag4757    1.0  0.42857  0.03571  0.96429  1.0000
  Ag  Ag4758    1.0  0.46429  0.00000  0.96429  1.0000
  Ag  Ag4759    1.0  0.46429  0.03571  0.92857  1.0000
  Ag  Ag4760    1.0  0.42857  0.07143  0.00000  1.0000
  Ag  Ag4761    1.0  0.42857  0.10714  0.03571  1.0000
  Ag  Ag4762    1.0  0.46429  0.07143  0.03571  1.0000
  Ag  Ag4763    1.0  0.46429  0.10714  0.00000  1.0000
  Ag  Ag4764    1.0  0.42857  0.07143  0.07143  1.0000
  Ag  Ag4765    1.0  0.42857  0.10714  0.10714  1.0000
  Ag  Ag4766    1.0  0.46429  0.07143  0.10714  1.0000
  Ag  Ag4767    1.0  0.46429  0.10714  0.07143  1.0000
  Ag  Ag4768    1.0  0.42857  0.07143  0.14286  1.0000
  Ag  Ag4769    1.0  0.42857  0.10714  0.17857  1.0000
  Ag  Ag4770    1.0  0.46429  0.07143  0.17857  1.0000
  Ag  Ag4771    1.0  0.46429  0.10714  0.14286  1.0000
  Ag  Ag4772    1.0  0.42857  0.07143  0.21429  1.0000
  Ag  Ag4773    1.0  0.42857  0.10714  0.25000  1.0000
  Ag  Ag4774    1.0  0.46429  0.07143  0.25000  1.0000
  Ag  Ag4775    1.0  0.46429  0.10714  0.21429  1.0000
  Ag  Ag4776    1.0  0.42857  0.07143  0.28571  1.0000
  Ag  Ag4777    1.0  0.42857  0.10714  0.32143  1.0000
  Ag  Ag4778    1.0  0.46429  0.07143  0.32143  1.0000
  Ag  Ag4779    1.0  0.46429  0.10714  0.28571  1.0000
  Ag  Ag4780    1.0  0.42857  0.07143  0.35714  1.0000
  Ag  Ag4781    1.0  0.42857  0.10714  0.39286  1.0000
  Ag  Ag4782    1.0  0.46429  0.07143  0.39286  1.0000
  Ag  Ag4783    1.0  0.46429  0.10714  0.35714  1.0000
  Ag  Ag4784    1.0  0.42857  0.07143  0.42857  1.0000
  Ag  Ag4785    1.0  0.42857  0.10714  0.46429  1.0000
  Ag  Ag4786    1.0  0.46429  0.07143  0.46429  1.0000
  Ag  Ag4787    1.0  0.46429  0.10714  0.42857  1.0000
  Ag  Ag4788    1.0  0.42857  0.07143  0.50000  1.0000
  Ag  Ag4789    1.0  0.42857  0.10714  0.53571  1.0000
  Ag  Ag4790    1.0  0.46429  0.07143  0.53571  1.0000
  Ag  Ag4791    1.0  0.46429  0.10714  0.50000  1.0000
  Ag  Ag4792    1.0  0.42857  0.07143  0.57143  1.0000
  Ag  Ag4793    1.0  0.42857  0.10714  0.60714  1.0000
  Ag  Ag4794    1.0  0.46429  0.07143  0.60714  1.0000
  Ag  Ag4795    1.0  0.46429  0.10714  0.57143  1.0000
  Ag  Ag4796    1.0  0.42857  0.07143  0.64286  1.0000
  Ag  Ag4797    1.0  0.42857  0.10714  0.67857  1.0000
  Ag  Ag4798    1.0  0.46429  0.07143  0.67857  1.0000
  Ag  Ag4799    1.0  0.46429  0.10714  0.64286  1.0000
  Ag  Ag4800    1.0  0.42857  0.07143  0.71429  1.0000
  Ag  Ag4801    1.0  0.42857  0.10714  0.75000  1.0000
  Ag  Ag4802    1.0  0.46429  0.07143  0.75000  1.0000
  Ag  Ag4803    1.0  0.46429  0.10714  0.71429  1.0000
  Ag  Ag4804    1.0  0.42857  0.07143  0.78571  1.0000
  Ag  Ag4805    1.0  0.42857  0.10714  0.82143  1.0000
  Ag  Ag4806    1.0  0.46429  0.07143  0.82143  1.0000
  Ag  Ag4807    1.0  0.46429  0.10714  0.78571  1.0000
  Ag  Ag4808    1.0  0.42857  0.07143  0.85714  1.0000
  Ag  Ag4809    1.0  0.42857  0.10714  0.89286  1.0000
  Ag  Ag4810    1.0  0.46429  0.07143  0.89286  1.0000
  Ag  Ag4811    1.0  0.46429  0.10714  0.85714  1.0000
  Ag  Ag4812    1.0  0.42857  0.07143  0.92857  1.0000
  Ag  Ag4813    1.0  0.42857  0.10714  0.96429  1.0000
  Ag  Ag4814    1.0  0.46429  0.07143  0.96429  1.0000
  Ag  Ag4815    1.0  0.46429  0.10714  0.92857  1.0000
  Ag  Ag4816    1.0  0.42857  0.14286  0.00000  1.0000
  Ag  Ag4817    1.0  0.42857  0.17857  0.03571  1.0000
  Ag  Ag4818    1.0  0.46429  0.14286  0.03571  1.0000
  Ag  Ag4819    1.0  0.46429  0.17857  0.00000  1.0000
  Ag  Ag4820    1.0  0.42857  0.14286  0.07143  1.0000
  Ag  Ag4821    1.0  0.42857  0.17857  0.10714  1.0000
  Ag  Ag4822    1.0  0.46429  0.14286  0.10714  1.0000
  Ag  Ag4823    1.0  0.46429  0.17857  0.07143  1.0000
  Ag  Ag4824    1.0  0.42857  0.14286  0.14286  1.0000
  Ag  Ag4825    1.0  0.42857  0.17857  0.17857  1.0000
  Ag  Ag4826    1.0  0.46429  0.14286  0.17857  1.0000
  Ag  Ag4827    1.0  0.46429  0.17857  0.14286  1.0000
  Ag  Ag4828    1.0  0.42857  0.14286  0.21429  1.0000
  Ag  Ag4829    1.0  0.42857  0.17857  0.25000  1.0000
  Ag  Ag4830    1.0  0.46429  0.14286  0.25000  1.0000
  Ag  Ag4831    1.0  0.46429  0.17857  0.21429  1.0000
  Ag  Ag4832    1.0  0.42857  0.14286  0.28571  1.0000
  Ag  Ag4833    1.0  0.42857  0.17857  0.32143  1.0000
  Ag  Ag4834    1.0  0.46429  0.14286  0.32143  1.0000
  Ag  Ag4835    1.0  0.46429  0.17857  0.28571  1.0000
  Ag  Ag4836    1.0  0.42857  0.14286  0.35714  1.0000
  Ag  Ag4837    1.0  0.42857  0.17857  0.39286  1.0000
  Ag  Ag4838    1.0  0.46429  0.14286  0.39286  1.0000
  Ag  Ag4839    1.0  0.46429  0.17857  0.35714  1.0000
  Ag  Ag4840    1.0  0.42857  0.14286  0.42857  1.0000
  Ag  Ag4841    1.0  0.42857  0.17857  0.46429  1.0000
  Ag  Ag4842    1.0  0.46429  0.14286  0.46429  1.0000
  Ag  Ag4843    1.0  0.46429  0.17857  0.42857  1.0000
  Ag  Ag4844    1.0  0.42857  0.14286  0.50000  1.0000
  Ag  Ag4845    1.0  0.42857  0.17857  0.53571  1.0000
  Ag  Ag4846    1.0  0.46429  0.14286  0.53571  1.0000
  Ag  Ag4847    1.0  0.46429  0.17857  0.50000  1.0000
  Ag  Ag4848    1.0  0.42857  0.14286  0.57143  1.0000
  Ag  Ag4849    1.0  0.42857  0.17857  0.60714  1.0000
  Ag  Ag4850    1.0  0.46429  0.14286  0.60714  1.0000
  Ag  Ag4851    1.0  0.46429  0.17857  0.57143  1.0000
  Ag  Ag4852    1.0  0.42857  0.14286  0.64286  1.0000
  Ag  Ag4853    1.0  0.42857  0.17857  0.67857  1.0000
  Ag  Ag4854    1.0  0.46429  0.14286  0.67857  1.0000
  Ag  Ag4855    1.0  0.46429  0.17857  0.64286  1.0000
  Ag  Ag4856    1.0  0.42857  0.14286  0.71429  1.0000
  Ag  Ag4857    1.0  0.42857  0.17857  0.75000  1.0000
  Ag  Ag4858    1.0  0.46429  0.14286  0.75000  1.0000
  Ag  Ag4859    1.0  0.46429  0.17857  0.71429  1.0000
  Ag  Ag4860    1.0  0.42857  0.14286  0.78571  1.0000
  Ag  Ag4861    1.0  0.42857  0.17857  0.82143  1.0000
  Ag  Ag4862    1.0  0.46429  0.14286  0.82143  1.0000
  Ag  Ag4863    1.0  0.46429  0.17857  0.78571  1.0000
  Ag  Ag4864    1.0  0.42857  0.14286  0.85714  1.0000
  Ag  Ag4865    1.0  0.42857  0.17857  0.89286  1.0000
  Ag  Ag4866    1.0  0.46429  0.14286  0.89286  1.0000
  Ag  Ag4867    1.0  0.46429  0.17857  0.85714  1.0000
  Ag  Ag4868    1.0  0.42857  0.14286  0.92857  1.0000
  Ag  Ag4869    1.0  0.42857  0.17857  0.96429  1.0000
  Ag  Ag4870    1.0  0.46429  0.14286  0.96429  1.0000
  Ag  Ag4871    1.0  0.46429  0.17857  0.92857  1.0000
  Ag  Ag4872    1.0  0.42857  0.21429  0.00000  1.0000
  Ag  Ag4873    1.0  0.42857  0.25000  0.03571  1.0000
  Ag  Ag4874    1.0  0.46429  0.21429  0.03571  1.0000
  Ag  Ag4875    1.0  0.46429  0.25000  0.00000  1.0000
  Ag  Ag4876    1.0  0.42857  0.21429  0.07143  1.0000
  Ag  Ag4877    1.0  0.42857  0.25000  0.10714  1.0000
  Ag  Ag4878    1.0  0.46429  0.21429  0.10714  1.0000
  Ag  Ag4879    1.0  0.46429  0.25000  0.07143  1.0000
  Ag  Ag4880    1.0  0.42857  0.21429  0.14286  1.0000
  Ag  Ag4881    1.0  0.42857  0.25000  0.17857  1.0000
  Ag  Ag4882    1.0  0.46429  0.21429  0.17857  1.0000
  Ag  Ag4883    1.0  0.46429  0.25000  0.14286  1.0000
  Ag  Ag4884    1.0  0.42857  0.21429  0.21429  1.0000
  Ag  Ag4885    1.0  0.42857  0.25000  0.25000  1.0000
  Ag  Ag4886    1.0  0.46429  0.21429  0.25000  1.0000
  Ag  Ag4887    1.0  0.46429  0.25000  0.21429  1.0000
  Ag  Ag4888    1.0  0.42857  0.21429  0.28571  1.0000
  Ag  Ag4889    1.0  0.42857  0.25000  0.32143  1.0000
  Ag  Ag4890    1.0  0.46429  0.21429  0.32143  1.0000
  Ag  Ag4891    1.0  0.46429  0.25000  0.28571  1.0000
  Ag  Ag4892    1.0  0.42857  0.21429  0.35714  1.0000
  Ag  Ag4893    1.0  0.42857  0.25000  0.39286  1.0000
  Ag  Ag4894    1.0  0.46429  0.21429  0.39286  1.0000
  Ag  Ag4895    1.0  0.46429  0.25000  0.35714  1.0000
  Ag  Ag4896    1.0  0.42857  0.21429  0.42857  1.0000
  Ag  Ag4897    1.0  0.42857  0.25000  0.46429  1.0000
  Ag  Ag4898    1.0  0.46429  0.21429  0.46429  1.0000
  Ag  Ag4899    1.0  0.46429  0.25000  0.42857  1.0000
  Ag  Ag4900    1.0  0.42857  0.21429  0.50000  1.0000
  Ag  Ag4901    1.0  0.42857  0.25000  0.53571  1.0000
  Ag  Ag4902    1.0  0.46429  0.21429  0.53571  1.0000
  Ag  Ag4903    1.0  0.46429  0.25000  0.50000  1.0000
  Ag  Ag4904    1.0  0.42857  0.21429  0.57143  1.0000
  Ag  Ag4905    1.0  0.42857  0.25000  0.60714  1.0000
  Ag  Ag4906    1.0  0.46429  0.21429  0.60714  1.0000
  Ag  Ag4907    1.0  0.46429  0.25000  0.57143  1.0000
  Ag  Ag4908    1.0  0.42857  0.21429  0.64286  1.0000
  Ag  Ag4909    1.0  0.42857  0.25000  0.67857  1.0000
  Ag  Ag4910    1.0  0.46429  0.21429  0.67857  1.0000
  Ag  Ag4911    1.0  0.46429  0.25000  0.64286  1.0000
  Ag  Ag4912    1.0  0.42857  0.21429  0.71429  1.0000
  Ag  Ag4913    1.0  0.42857  0.25000  0.75000  1.0000
  Ag  Ag4914    1.0  0.46429  0.21429  0.75000  1.0000
  Ag  Ag4915    1.0  0.46429  0.25000  0.71429  1.0000
  Ag  Ag4916    1.0  0.42857  0.21429  0.78571  1.0000
  Ag  Ag4917    1.0  0.42857  0.25000  0.82143  1.0000
  Ag  Ag4918    1.0  0.46429  0.21429  0.82143  1.0000
  Ag  Ag4919    1.0  0.46429  0.25000  0.78571  1.0000
  Ag  Ag4920    1.0  0.42857  0.21429  0.85714  1.0000
  Ag  Ag4921    1.0  0.42857  0.25000  0.89286  1.0000
  Ag  Ag4922    1.0  0.46429  0.21429  0.89286  1.0000
  Ag  Ag4923    1.0  0.46429  0.25000  0.85714  1.0000
  Ag  Ag4924    1.0  0.42857  0.21429  0.92857  1.0000
  Ag  Ag4925    1.0  0.42857  0.25000  0.96429  1.0000
  Ag  Ag4926    1.0  0.46429  0.21429  0.96429  1.0000
  Ag  Ag4927    1.0  0.46429  0.25000  0.92857  1.0000
  Ag  Ag4928    1.0  0.42857  0.28571  0.00000  1.0000
  Ag  Ag4929    1.0  0.42857  0.32143  0.03571  1.0000
  Ag  Ag4930    1.0  0.46429  0.28571  0.03571  1.0000
  Ag  Ag4931    1.0  0.46429  0.32143  0.00000  1.0000
  Ag  Ag4932    1.0  0.42857  0.28571  0.07143  1.0000
  Ag  Ag4933    1.0  0.42857  0.32143  0.10714  1.0000
  Ag  Ag4934    1.0  0.46429  0.28571  0.10714  1.0000
  Ag  Ag4935    1.0  0.46429  0.32143  0.07143  1.0000
  Ag  Ag4936    1.0  0.42857  0.28571  0.14286  1.0000
  Ag  Ag4937    1.0  0.42857  0.32143  0.17857  1.0000
  Ag  Ag4938    1.0  0.46429  0.28571  0.17857  1.0000
  Ag  Ag4939    1.0  0.46429  0.32143  0.14286  1.0000
  Ag  Ag4940    1.0  0.42857  0.28571  0.21429  1.0000
  Ag  Ag4941    1.0  0.42857  0.32143  0.25000  1.0000
  Ag  Ag4942    1.0  0.46429  0.28571  0.25000  1.0000
  Ag  Ag4943    1.0  0.46429  0.32143  0.21429  1.0000
  Ag  Ag4944    1.0  0.42857  0.28571  0.28571  1.0000
  Ag  Ag4945    1.0  0.42857  0.32143  0.32143  1.0000
  Ag  Ag4946    1.0  0.46429  0.28571  0.32143  1.0000
  Ag  Ag4947    1.0  0.46429  0.32143  0.28571  1.0000
  Ag  Ag4948    1.0  0.42857  0.28571  0.35714  1.0000
  Ag  Ag4949    1.0  0.42857  0.32143  0.39286  1.0000
  Ag  Ag4950    1.0  0.46429  0.28571  0.39286  1.0000
  Ag  Ag4951    1.0  0.46429  0.32143  0.35714  1.0000
  Ag  Ag4952    1.0  0.42857  0.28571  0.42857  1.0000
  Ag  Ag4953    1.0  0.42857  0.32143  0.46429  1.0000
  Ag  Ag4954    1.0  0.46429  0.28571  0.46429  1.0000
  Ag  Ag4955    1.0  0.46429  0.32143  0.42857  1.0000
  Ag  Ag4956    1.0  0.42857  0.28571  0.50000  1.0000
  Ag  Ag4957    1.0  0.42857  0.32143  0.53571  1.0000
  Ag  Ag4958    1.0  0.46429  0.28571  0.53571  1.0000
  Ag  Ag4959    1.0  0.46429  0.32143  0.50000  1.0000
  Ag  Ag4960    1.0  0.42857  0.28571  0.57143  1.0000
  Ag  Ag4961    1.0  0.42857  0.32143  0.60714  1.0000
  Ag  Ag4962    1.0  0.46429  0.28571  0.60714  1.0000
  Ag  Ag4963    1.0  0.46429  0.32143  0.57143  1.0000
  Ag  Ag4964    1.0  0.42857  0.28571  0.64286  1.0000
  Ag  Ag4965    1.0  0.42857  0.32143  0.67857  1.0000
  Ag  Ag4966    1.0  0.46429  0.28571  0.67857  1.0000
  Ag  Ag4967    1.0  0.46429  0.32143  0.64286  1.0000
  Ag  Ag4968    1.0  0.42857  0.28571  0.71429  1.0000
  Ag  Ag4969    1.0  0.42857  0.32143  0.75000  1.0000
  Ag  Ag4970    1.0  0.46429  0.28571  0.75000  1.0000
  Ag  Ag4971    1.0  0.46429  0.32143  0.71429  1.0000
  Ag  Ag4972    1.0  0.42857  0.28571  0.78571  1.0000
  Ag  Ag4973    1.0  0.42857  0.32143  0.82143  1.0000
  Ag  Ag4974    1.0  0.46429  0.28571  0.82143  1.0000
  Ag  Ag4975    1.0  0.46429  0.32143  0.78571  1.0000
  Ag  Ag4976    1.0  0.42857  0.28571  0.85714  1.0000
  Ag  Ag4977    1.0  0.42857  0.32143  0.89286  1.0000
  Ag  Ag4978    1.0  0.46429  0.28571  0.89286  1.0000
  Ag  Ag4979    1.0  0.46429  0.32143  0.85714  1.0000
  Ag  Ag4980    1.0  0.42857  0.28571  0.92857  1.0000
  Ag  Ag4981    1.0  0.42857  0.32143  0.96429  1.0000
  Ag  Ag4982    1.0  0.46429  0.28571  0.96429  1.0000
  Ag  Ag4983    1.0  0.46429  0.32143  0.92857  1.0000
  Ag  Ag4984    1.0  0.42857  0.35714  0.00000  1.0000
  Ag  Ag4985    1.0  0.42857  0.39286  0.03571  1.0000
  Ag  Ag4986    1.0  0.46429  0.35714  0.03571  1.0000
  Ag  Ag4987    1.0  0.46429  0.39286  0.00000  1.0000
  Ag  Ag4988    1.0  0.42857  0.35714  0.07143  1.0000
  Ag  Ag4989    1.0  0.42857  0.39286  0.10714  1.0000
  Ag  Ag4990    1.0  0.46429  0.35714  0.10714  1.0000
  Ag  Ag4991    1.0  0.46429  0.39286  0.07143  1.0000
  Ag  Ag4992    1.0  0.42857  0.35714  0.14286  1.0000
  Ag  Ag4993    1.0  0.42857  0.39286  0.17857  1.0000
  Ag  Ag4994    1.0  0.46429  0.35714  0.17857  1.0000
  Ag  Ag4995    1.0  0.46429  0.39286  0.14286  1.0000
  Ag  Ag4996    1.0  0.42857  0.35714  0.21429  1.0000
  Ag  Ag4997    1.0  0.42857  0.39286  0.25000  1.0000
  Ag  Ag4998    1.0  0.46429  0.35714  0.25000  1.0000
  Ag  Ag4999    1.0  0.46429  0.39286  0.21429  1.0000
  Ag  Ag5000    1.0  0.42857  0.35714  0.28571  1.0000
  Ag  Ag5001    1.0  0.42857  0.39286  0.32143  1.0000
  Ag  Ag5002    1.0  0.46429  0.35714  0.32143  1.0000
  Ag  Ag5003    1.0  0.46429  0.39286  0.28571  1.0000
  Ag  Ag5004    1.0  0.42857  0.35714  0.35714  1.0000
  Ag  Ag5005    1.0  0.42857  0.39286  0.39286  1.0000
  Ag  Ag5006    1.0  0.46429  0.35714  0.39286  1.0000
  Ag  Ag5007    1.0  0.46429  0.39286  0.35714  1.0000
  Ag  Ag5008    1.0  0.42857  0.35714  0.42857  1.0000
  Ag  Ag5009    1.0  0.42857  0.39286  0.46429  1.0000
  Ag  Ag5010    1.0  0.46429  0.35714  0.46429  1.0000
  Ag  Ag5011    1.0  0.46429  0.39286  0.42857  1.0000
  Ag  Ag5012    1.0  0.42857  0.35714  0.50000  1.0000
  Ag  Ag5013    1.0  0.42857  0.39286  0.53571  1.0000
  Ag  Ag5014    1.0  0.46429  0.35714  0.53571  1.0000
  Ag  Ag5015    1.0  0.46429  0.39286  0.50000  1.0000
  Ag  Ag5016    1.0  0.42857  0.35714  0.57143  1.0000
  Ag  Ag5017    1.0  0.42857  0.39286  0.60714  1.0000
  Ag  Ag5018    1.0  0.46429  0.35714  0.60714  1.0000
  Ag  Ag5019    1.0  0.46429  0.39286  0.57143  1.0000
  Ag  Ag5020    1.0  0.42857  0.35714  0.64286  1.0000
  Ag  Ag5021    1.0  0.42857  0.39286  0.67857  1.0000
  Ag  Ag5022    1.0  0.46429  0.35714  0.67857  1.0000
  Ag  Ag5023    1.0  0.46429  0.39286  0.64286  1.0000
  Ag  Ag5024    1.0  0.42857  0.35714  0.71429  1.0000
  Ag  Ag5025    1.0  0.42857  0.39286  0.75000  1.0000
  Ag  Ag5026    1.0  0.46429  0.35714  0.75000  1.0000
  Ag  Ag5027    1.0  0.46429  0.39286  0.71429  1.0000
  Ag  Ag5028    1.0  0.42857  0.35714  0.78571  1.0000
  Ag  Ag5029    1.0  0.42857  0.39286  0.82143  1.0000
  Ag  Ag5030    1.0  0.46429  0.35714  0.82143  1.0000
  Ag  Ag5031    1.0  0.46429  0.39286  0.78571  1.0000
  Ag  Ag5032    1.0  0.42857  0.35714  0.85714  1.0000
  Ag  Ag5033    1.0  0.42857  0.39286  0.89286  1.0000
  Ag  Ag5034    1.0  0.46429  0.35714  0.89286  1.0000
  Ag  Ag5035    1.0  0.46429  0.39286  0.85714  1.0000
  Ag  Ag5036    1.0  0.42857  0.35714  0.92857  1.0000
  Ag  Ag5037    1.0  0.42857  0.39286  0.96429  1.0000
  Ag  Ag5038    1.0  0.46429  0.35714  0.96429  1.0000
  Ag  Ag5039    1.0  0.46429  0.39286  0.92857  1.0000
  Ag  Ag5040    1.0  0.42857  0.42857  0.00000  1.0000
  Ag  Ag5041    1.0  0.42857  0.46429  0.03571  1.0000
  Ag  Ag5042    1.0  0.46429  0.42857  0.03571  1.0000
  Ag  Ag5043    1.0  0.46429  0.46429  0.00000  1.0000
  Ag  Ag5044    1.0  0.42857  0.42857  0.07143  1.0000
  Ag  Ag5045    1.0  0.42857  0.46429  0.10714  1.0000
  Ag  Ag5046    1.0  0.46429  0.42857  0.10714  1.0000
  Ag  Ag5047    1.0  0.46429  0.46429  0.07143  1.0000
  Ag  Ag5048    1.0  0.42857  0.42857  0.14286  1.0000
  Ag  Ag5049    1.0  0.42857  0.46429  0.17857  1.0000
  Ag  Ag5050    1.0  0.46429  0.42857  0.17857  1.0000
  Ag  Ag5051    1.0  0.46429  0.46429  0.14286  1.0000
  Ag  Ag5052    1.0  0.42857  0.42857  0.21429  1.0000
  Ag  Ag5053    1.0  0.42857  0.46429  0.25000  1.0000
  Ag  Ag5054    1.0  0.46429  0.42857  0.25000  1.0000
  Ag  Ag5055    1.0  0.46429  0.46429  0.21429  1.0000
  Ag  Ag5056    1.0  0.42857  0.42857  0.28571  1.0000
  Ag  Ag5057    1.0  0.42857  0.46429  0.32143  1.0000
  Ag  Ag5058    1.0  0.46429  0.42857  0.32143  1.0000
  Ag  Ag5059    1.0  0.46429  0.46429  0.28571  1.0000
  Ag  Ag5060    1.0  0.42857  0.42857  0.35714  1.0000
  Ag  Ag5061    1.0  0.42857  0.46429  0.39286  1.0000
  Ag  Ag5062    1.0  0.46429  0.42857  0.39286  1.0000
  Ag  Ag5063    1.0  0.46429  0.46429  0.35714  1.0000
  Ag  Ag5064    1.0  0.42857  0.42857  0.42857  1.0000
  Ag  Ag5065    1.0  0.42857  0.46429  0.46429  1.0000
  Ag  Ag5066    1.0  0.46429  0.42857  0.46429  1.0000
  Ag  Ag5067    1.0  0.46429  0.46429  0.42857  1.0000
  Ag  Ag5068    1.0  0.42857  0.42857  0.50000  1.0000
  Ag  Ag5069    1.0  0.42857  0.46429  0.53571  1.0000
  Ag  Ag5070    1.0  0.46429  0.42857  0.53571  1.0000
  Ag  Ag5071    1.0  0.46429  0.46429  0.50000  1.0000
  Ag  Ag5072    1.0  0.42857  0.42857  0.57143  1.0000
  Ag  Ag5073    1.0  0.42857  0.46429  0.60714  1.0000
  Ag  Ag5074    1.0  0.46429  0.42857  0.60714  1.0000
  Ag  Ag5075    1.0  0.46429  0.46429  0.57143  1.0000
  Ag  Ag5076    1.0  0.42857  0.42857  0.64286  1.0000
  Ag  Ag5077    1.0  0.42857  0.46429  0.67857  1.0000
  Ag  Ag5078    1.0  0.46429  0.42857  0.67857  1.0000
  Ag  Ag5079    1.0  0.46429  0.46429  0.64286  1.0000
  Ag  Ag5080    1.0  0.42857  0.42857  0.71429  1.0000
  Ag  Ag5081    1.0  0.42857  0.46429  0.75000  1.0000
  Ag  Ag5082    1.0  0.46429  0.42857  0.75000  1.0000
  Ag  Ag5083    1.0  0.46429  0.46429  0.71429  1.0000
  Ag  Ag5084    1.0  0.42857  0.42857  0.78571  1.0000
  Ag  Ag5085    1.0  0.42857  0.46429  0.82143  1.0000
  Ag  Ag5086    1.0  0.46429  0.42857  0.82143  1.0000
  Ag  Ag5087    1.0  0.46429  0.46429  0.78571  1.0000
  Ag  Ag5088    1.0  0.42857  0.42857  0.85714  1.0000
  Ag  Ag5089    1.0  0.42857  0.46429  0.89286  1.0000
  Ag  Ag5090    1.0  0.46429  0.42857  0.89286  1.0000
  Ag  Ag5091    1.0  0.46429  0.46429  0.85714  1.0000
  Ag  Ag5092    1.0  0.42857  0.42857  0.92857  1.0000
  Ag  Ag5093    1.0  0.42857  0.46429  0.96429  1.0000
  Ag  Ag5094    1.0  0.46429  0.42857  0.96429  1.0000
  Ag  Ag5095    1.0  0.46429  0.46429  0.92857  1.0000
  Ag  Ag5096    1.0  0.42857  0.50000  0.00000  1.0000
  Ag  Ag5097    1.0  0.42857  0.53571  0.03571  1.0000
  Ag  Ag5098    1.0  0.46429  0.50000  0.03571  1.0000
  Ag  Ag5099    1.0  0.46429  0.53571  0.00000  1.0000
  Ag  Ag5100    1.0  0.42857  0.50000  0.07143  1.0000
  Ag  Ag5101    1.0  0.42857  0.53571  0.10714  1.0000
  Ag  Ag5102    1.0  0.46429  0.50000  0.10714  1.0000
  Ag  Ag5103    1.0  0.46429  0.53571  0.07143  1.0000
  Ag  Ag5104    1.0  0.42857  0.50000  0.14286  1.0000
  Ag  Ag5105    1.0  0.42857  0.53571  0.17857  1.0000
  Ag  Ag5106    1.0  0.46429  0.50000  0.17857  1.0000
  Ag  Ag5107    1.0  0.46429  0.53571  0.14286  1.0000
  Ag  Ag5108    1.0  0.42857  0.50000  0.21429  1.0000
  Ag  Ag5109    1.0  0.42857  0.53571  0.25000  1.0000
  Ag  Ag5110    1.0  0.46429  0.50000  0.25000  1.0000
  Ag  Ag5111    1.0  0.46429  0.53571  0.21429  1.0000
  Ag  Ag5112    1.0  0.42857  0.50000  0.28571  1.0000
  Ag  Ag5113    1.0  0.42857  0.53571  0.32143  1.0000
  Ag  Ag5114    1.0  0.46429  0.50000  0.32143  1.0000
  Ag  Ag5115    1.0  0.46429  0.53571  0.28571  1.0000
  Ag  Ag5116    1.0  0.42857  0.50000  0.35714  1.0000
  Ag  Ag5117    1.0  0.42857  0.53571  0.39286  1.0000
  Ag  Ag5118    1.0  0.46429  0.50000  0.39286  1.0000
  Ag  Ag5119    1.0  0.46429  0.53571  0.35714  1.0000
  Ag  Ag5120    1.0  0.42857  0.50000  0.42857  1.0000
  Ag  Ag5121    1.0  0.42857  0.53571  0.46429  1.0000
  Ag  Ag5122    1.0  0.46429  0.50000  0.46429  1.0000
  Ag  Ag5123    1.0  0.46429  0.53571  0.42857  1.0000
  Ag  Ag5124    1.0  0.42857  0.50000  0.50000  1.0000
  Ag  Ag5125    1.0  0.42857  0.53571  0.53571  1.0000
  Ag  Ag5126    1.0  0.46429  0.50000  0.53571  1.0000
  Ag  Ag5127    1.0  0.46429  0.53571  0.50000  1.0000
  Ag  Ag5128    1.0  0.42857  0.50000  0.57143  1.0000
  Ag  Ag5129    1.0  0.42857  0.53571  0.60714  1.0000
  Ag  Ag5130    1.0  0.46429  0.50000  0.60714  1.0000
  Ag  Ag5131    1.0  0.46429  0.53571  0.57143  1.0000
  Ag  Ag5132    1.0  0.42857  0.50000  0.64286  1.0000
  Ag  Ag5133    1.0  0.42857  0.53571  0.67857  1.0000
  Ag  Ag5134    1.0  0.46429  0.50000  0.67857  1.0000
  Ag  Ag5135    1.0  0.46429  0.53571  0.64286  1.0000
  Ag  Ag5136    1.0  0.42857  0.50000  0.71429  1.0000
  Ag  Ag5137    1.0  0.42857  0.53571  0.75000  1.0000
  Ag  Ag5138    1.0  0.46429  0.50000  0.75000  1.0000
  Ag  Ag5139    1.0  0.46429  0.53571  0.71429  1.0000
  Ag  Ag5140    1.0  0.42857  0.50000  0.78571  1.0000
  Ag  Ag5141    1.0  0.42857  0.53571  0.82143  1.0000
  Ag  Ag5142    1.0  0.46429  0.50000  0.82143  1.0000
  Ag  Ag5143    1.0  0.46429  0.53571  0.78571  1.0000
  Ag  Ag5144    1.0  0.42857  0.50000  0.85714  1.0000
  Ag  Ag5145    1.0  0.42857  0.53571  0.89286  1.0000
  Ag  Ag5146    1.0  0.46429  0.50000  0.89286  1.0000
  Ag  Ag5147    1.0  0.46429  0.53571  0.85714  1.0000
  Ag  Ag5148    1.0  0.42857  0.50000  0.92857  1.0000
  Ag  Ag5149    1.0  0.42857  0.53571  0.96429  1.0000
  Ag  Ag5150    1.0  0.46429  0.50000  0.96429  1.0000
  Ag  Ag5151    1.0  0.46429  0.53571  0.92857  1.0000
  Ag  Ag5152    1.0  0.42857  0.57143  0.00000  1.0000
  Ag  Ag5153    1.0  0.42857  0.60714  0.03571  1.0000
  Ag  Ag5154    1.0  0.46429  0.57143  0.03571  1.0000
  Ag  Ag5155    1.0  0.46429  0.60714  0.00000  1.0000
  Ag  Ag5156    1.0  0.42857  0.57143  0.07143  1.0000
  Ag  Ag5157    1.0  0.42857  0.60714  0.10714  1.0000
  Ag  Ag5158    1.0  0.46429  0.57143  0.10714  1.0000
  Ag  Ag5159    1.0  0.46429  0.60714  0.07143  1.0000
  Ag  Ag5160    1.0  0.42857  0.57143  0.14286  1.0000
  Ag  Ag5161    1.0  0.42857  0.60714  0.17857  1.0000
  Ag  Ag5162    1.0  0.46429  0.57143  0.17857  1.0000
  Ag  Ag5163    1.0  0.46429  0.60714  0.14286  1.0000
  Ag  Ag5164    1.0  0.42857  0.57143  0.21429  1.0000
  Ag  Ag5165    1.0  0.42857  0.60714  0.25000  1.0000
  Ag  Ag5166    1.0  0.46429  0.57143  0.25000  1.0000
  Ag  Ag5167    1.0  0.46429  0.60714  0.21429  1.0000
  Ag  Ag5168    1.0  0.42857  0.57143  0.28571  1.0000
  Ag  Ag5169    1.0  0.42857  0.60714  0.32143  1.0000
  Ag  Ag5170    1.0  0.46429  0.57143  0.32143  1.0000
  Ag  Ag5171    1.0  0.46429  0.60714  0.28571  1.0000
  Ag  Ag5172    1.0  0.42857  0.57143  0.35714  1.0000
  Ag  Ag5173    1.0  0.42857  0.60714  0.39286  1.0000
  Ag  Ag5174    1.0  0.46429  0.57143  0.39286  1.0000
  Ag  Ag5175    1.0  0.46429  0.60714  0.35714  1.0000
  Ag  Ag5176    1.0  0.42857  0.57143  0.42857  1.0000
  Ag  Ag5177    1.0  0.42857  0.60714  0.46429  1.0000
  Ag  Ag5178    1.0  0.46429  0.57143  0.46429  1.0000
  Ag  Ag5179    1.0  0.46429  0.60714  0.42857  1.0000
  Ag  Ag5180    1.0  0.42857  0.57143  0.50000  1.0000
  Ag  Ag5181    1.0  0.42857  0.60714  0.53571  1.0000
  Ag  Ag5182    1.0  0.46429  0.57143  0.53571  1.0000
  Ag  Ag5183    1.0  0.46429  0.60714  0.50000  1.0000
  Ag  Ag5184    1.0  0.42857  0.57143  0.57143  1.0000
  Ag  Ag5185    1.0  0.42857  0.60714  0.60714  1.0000
  Ag  Ag5186    1.0  0.46429  0.57143  0.60714  1.0000
  Ag  Ag5187    1.0  0.46429  0.60714  0.57143  1.0000
  Ag  Ag5188    1.0  0.42857  0.57143  0.64286  1.0000
  Ag  Ag5189    1.0  0.42857  0.60714  0.67857  1.0000
  Ag  Ag5190    1.0  0.46429  0.57143  0.67857  1.0000
  Ag  Ag5191    1.0  0.46429  0.60714  0.64286  1.0000
  Ag  Ag5192    1.0  0.42857  0.57143  0.71429  1.0000
  Ag  Ag5193    1.0  0.42857  0.60714  0.75000  1.0000
  Ag  Ag5194    1.0  0.46429  0.57143  0.75000  1.0000
  Ag  Ag5195    1.0  0.46429  0.60714  0.71429  1.0000
  Ag  Ag5196    1.0  0.42857  0.57143  0.78571  1.0000
  Ag  Ag5197    1.0  0.42857  0.60714  0.82143  1.0000
  Ag  Ag5198    1.0  0.46429  0.57143  0.82143  1.0000
  Ag  Ag5199    1.0  0.46429  0.60714  0.78571  1.0000
  Ag  Ag5200    1.0  0.42857  0.57143  0.85714  1.0000
  Ag  Ag5201    1.0  0.42857  0.60714  0.89286  1.0000
  Ag  Ag5202    1.0  0.46429  0.57143  0.89286  1.0000
  Ag  Ag5203    1.0  0.46429  0.60714  0.85714  1.0000
  Ag  Ag5204    1.0  0.42857  0.57143  0.92857  1.0000
  Ag  Ag5205    1.0  0.42857  0.60714  0.96429  1.0000
  Ag  Ag5206    1.0  0.46429  0.57143  0.96429  1.0000
  Ag  Ag5207    1.0  0.46429  0.60714  0.92857  1.0000
  Ag  Ag5208    1.0  0.42857  0.64286  0.00000  1.0000
  Ag  Ag5209    1.0  0.42857  0.67857  0.03571  1.0000
  Ag  Ag5210    1.0  0.46429  0.64286  0.03571  1.0000
  Ag  Ag5211    1.0  0.46429  0.67857  0.00000  1.0000
  Ag  Ag5212    1.0  0.42857  0.64286  0.07143  1.0000
  Ag  Ag5213    1.0  0.42857  0.67857  0.10714  1.0000
  Ag  Ag5214    1.0  0.46429  0.64286  0.10714  1.0000
  Ag  Ag5215    1.0  0.46429  0.67857  0.07143  1.0000
  Ag  Ag5216    1.0  0.42857  0.64286  0.14286  1.0000
  Ag  Ag5217    1.0  0.42857  0.67857  0.17857  1.0000
  Ag  Ag5218    1.0  0.46429  0.64286  0.17857  1.0000
  Ag  Ag5219    1.0  0.46429  0.67857  0.14286  1.0000
  Ag  Ag5220    1.0  0.42857  0.64286  0.21429  1.0000
  Ag  Ag5221    1.0  0.42857  0.67857  0.25000  1.0000
  Ag  Ag5222    1.0  0.46429  0.64286  0.25000  1.0000
  Ag  Ag5223    1.0  0.46429  0.67857  0.21429  1.0000
  Ag  Ag5224    1.0  0.42857  0.64286  0.28571  1.0000
  Ag  Ag5225    1.0  0.42857  0.67857  0.32143  1.0000
  Ag  Ag5226    1.0  0.46429  0.64286  0.32143  1.0000
  Ag  Ag5227    1.0  0.46429  0.67857  0.28571  1.0000
  Ag  Ag5228    1.0  0.42857  0.64286  0.35714  1.0000
  Ag  Ag5229    1.0  0.42857  0.67857  0.39286  1.0000
  Ag  Ag5230    1.0  0.46429  0.64286  0.39286  1.0000
  Ag  Ag5231    1.0  0.46429  0.67857  0.35714  1.0000
  Ag  Ag5232    1.0  0.42857  0.64286  0.42857  1.0000
  Ag  Ag5233    1.0  0.42857  0.67857  0.46429  1.0000
  Ag  Ag5234    1.0  0.46429  0.64286  0.46429  1.0000
  Ag  Ag5235    1.0  0.46429  0.67857  0.42857  1.0000
  Ag  Ag5236    1.0  0.42857  0.64286  0.50000  1.0000
  Ag  Ag5237    1.0  0.42857  0.67857  0.53571  1.0000
  Ag  Ag5238    1.0  0.46429  0.64286  0.53571  1.0000
  Ag  Ag5239    1.0  0.46429  0.67857  0.50000  1.0000
  Ag  Ag5240    1.0  0.42857  0.64286  0.57143  1.0000
  Ag  Ag5241    1.0  0.42857  0.67857  0.60714  1.0000
  Ag  Ag5242    1.0  0.46429  0.64286  0.60714  1.0000
  Ag  Ag5243    1.0  0.46429  0.67857  0.57143  1.0000
  Ag  Ag5244    1.0  0.42857  0.64286  0.64286  1.0000
  Ag  Ag5245    1.0  0.42857  0.67857  0.67857  1.0000
  Ag  Ag5246    1.0  0.46429  0.64286  0.67857  1.0000
  Ag  Ag5247    1.0  0.46429  0.67857  0.64286  1.0000
  Ag  Ag5248    1.0  0.42857  0.64286  0.71429  1.0000
  Ag  Ag5249    1.0  0.42857  0.67857  0.75000  1.0000
  Ag  Ag5250    1.0  0.46429  0.64286  0.75000  1.0000
  Ag  Ag5251    1.0  0.46429  0.67857  0.71429  1.0000
  Ag  Ag5252    1.0  0.42857  0.64286  0.78571  1.0000
  Ag  Ag5253    1.0  0.42857  0.67857  0.82143  1.0000
  Ag  Ag5254    1.0  0.46429  0.64286  0.82143  1.0000
  Ag  Ag5255    1.0  0.46429  0.67857  0.78571  1.0000
  Ag  Ag5256    1.0  0.42857  0.64286  0.85714  1.0000
  Ag  Ag5257    1.0  0.42857  0.67857  0.89286  1.0000
  Ag  Ag5258    1.0  0.46429  0.64286  0.89286  1.0000
  Ag  Ag5259    1.0  0.46429  0.67857  0.85714  1.0000
  Ag  Ag5260    1.0  0.42857  0.64286  0.92857  1.0000
  Ag  Ag5261    1.0  0.42857  0.67857  0.96429  1.0000
  Ag  Ag5262    1.0  0.46429  0.64286  0.96429  1.0000
  Ag  Ag5263    1.0  0.46429  0.67857  0.92857  1.0000
  Ag  Ag5264    1.0  0.42857  0.71429  0.00000  1.0000
  Ag  Ag5265    1.0  0.42857  0.75000  0.03571  1.0000
  Ag  Ag5266    1.0  0.46429  0.71429  0.03571  1.0000
  Ag  Ag5267    1.0  0.46429  0.75000  0.00000  1.0000
  Ag  Ag5268    1.0  0.42857  0.71429  0.07143  1.0000
  Ag  Ag5269    1.0  0.42857  0.75000  0.10714  1.0000
  Ag  Ag5270    1.0  0.46429  0.71429  0.10714  1.0000
  Ag  Ag5271    1.0  0.46429  0.75000  0.07143  1.0000
  Ag  Ag5272    1.0  0.42857  0.71429  0.14286  1.0000
  Ag  Ag5273    1.0  0.42857  0.75000  0.17857  1.0000
  Ag  Ag5274    1.0  0.46429  0.71429  0.17857  1.0000
  Ag  Ag5275    1.0  0.46429  0.75000  0.14286  1.0000
  Ag  Ag5276    1.0  0.42857  0.71429  0.21429  1.0000
  Ag  Ag5277    1.0  0.42857  0.75000  0.25000  1.0000
  Ag  Ag5278    1.0  0.46429  0.71429  0.25000  1.0000
  Ag  Ag5279    1.0  0.46429  0.75000  0.21429  1.0000
  Ag  Ag5280    1.0  0.42857  0.71429  0.28571  1.0000
  Ag  Ag5281    1.0  0.42857  0.75000  0.32143  1.0000
  Ag  Ag5282    1.0  0.46429  0.71429  0.32143  1.0000
  Ag  Ag5283    1.0  0.46429  0.75000  0.28571  1.0000
  Ag  Ag5284    1.0  0.42857  0.71429  0.35714  1.0000
  Ag  Ag5285    1.0  0.42857  0.75000  0.39286  1.0000
  Ag  Ag5286    1.0  0.46429  0.71429  0.39286  1.0000
  Ag  Ag5287    1.0  0.46429  0.75000  0.35714  1.0000
  Ag  Ag5288    1.0  0.42857  0.71429  0.42857  1.0000
  Ag  Ag5289    1.0  0.42857  0.75000  0.46429  1.0000
  Ag  Ag5290    1.0  0.46429  0.71429  0.46429  1.0000
  Ag  Ag5291    1.0  0.46429  0.75000  0.42857  1.0000
  Ag  Ag5292    1.0  0.42857  0.71429  0.50000  1.0000
  Ag  Ag5293    1.0  0.42857  0.75000  0.53571  1.0000
  Ag  Ag5294    1.0  0.46429  0.71429  0.53571  1.0000
  Ag  Ag5295    1.0  0.46429  0.75000  0.50000  1.0000
  Ag  Ag5296    1.0  0.42857  0.71429  0.57143  1.0000
  Ag  Ag5297    1.0  0.42857  0.75000  0.60714  1.0000
  Ag  Ag5298    1.0  0.46429  0.71429  0.60714  1.0000
  Ag  Ag5299    1.0  0.46429  0.75000  0.57143  1.0000
  Ag  Ag5300    1.0  0.42857  0.71429  0.64286  1.0000
  Ag  Ag5301    1.0  0.42857  0.75000  0.67857  1.0000
  Ag  Ag5302    1.0  0.46429  0.71429  0.67857  1.0000
  Ag  Ag5303    1.0  0.46429  0.75000  0.64286  1.0000
  Ag  Ag5304    1.0  0.42857  0.71429  0.71429  1.0000
  Ag  Ag5305    1.0  0.42857  0.75000  0.75000  1.0000
  Ag  Ag5306    1.0  0.46429  0.71429  0.75000  1.0000
  Ag  Ag5307    1.0  0.46429  0.75000  0.71429  1.0000
  Ag  Ag5308    1.0  0.42857  0.71429  0.78571  1.0000
  Ag  Ag5309    1.0  0.42857  0.75000  0.82143  1.0000
  Ag  Ag5310    1.0  0.46429  0.71429  0.82143  1.0000
  Ag  Ag5311    1.0  0.46429  0.75000  0.78571  1.0000
  Ag  Ag5312    1.0  0.42857  0.71429  0.85714  1.0000
  Ag  Ag5313    1.0  0.42857  0.75000  0.89286  1.0000
  Ag  Ag5314    1.0  0.46429  0.71429  0.89286  1.0000
  Ag  Ag5315    1.0  0.46429  0.75000  0.85714  1.0000
  Ag  Ag5316    1.0  0.42857  0.71429  0.92857  1.0000
  Ag  Ag5317    1.0  0.42857  0.75000  0.96429  1.0000
  Ag  Ag5318    1.0  0.46429  0.71429  0.96429  1.0000
  Ag  Ag5319    1.0  0.46429  0.75000  0.92857  1.0000
  Ag  Ag5320    1.0  0.42857  0.78571  0.00000  1.0000
  Ag  Ag5321    1.0  0.42857  0.82143  0.03571  1.0000
  Ag  Ag5322    1.0  0.46429  0.78571  0.03571  1.0000
  Ag  Ag5323    1.0  0.46429  0.82143  0.00000  1.0000
  Ag  Ag5324    1.0  0.42857  0.78571  0.07143  1.0000
  Ag  Ag5325    1.0  0.42857  0.82143  0.10714  1.0000
  Ag  Ag5326    1.0  0.46429  0.78571  0.10714  1.0000
  Ag  Ag5327    1.0  0.46429  0.82143  0.07143  1.0000
  Ag  Ag5328    1.0  0.42857  0.78571  0.14286  1.0000
  Ag  Ag5329    1.0  0.42857  0.82143  0.17857  1.0000
  Ag  Ag5330    1.0  0.46429  0.78571  0.17857  1.0000
  Ag  Ag5331    1.0  0.46429  0.82143  0.14286  1.0000
  Ag  Ag5332    1.0  0.42857  0.78571  0.21429  1.0000
  Ag  Ag5333    1.0  0.42857  0.82143  0.25000  1.0000
  Ag  Ag5334    1.0  0.46429  0.78571  0.25000  1.0000
  Ag  Ag5335    1.0  0.46429  0.82143  0.21429  1.0000
  Ag  Ag5336    1.0  0.42857  0.78571  0.28571  1.0000
  Ag  Ag5337    1.0  0.42857  0.82143  0.32143  1.0000
  Ag  Ag5338    1.0  0.46429  0.78571  0.32143  1.0000
  Ag  Ag5339    1.0  0.46429  0.82143  0.28571  1.0000
  Ag  Ag5340    1.0  0.42857  0.78571  0.35714  1.0000
  Ag  Ag5341    1.0  0.42857  0.82143  0.39286  1.0000
  Ag  Ag5342    1.0  0.46429  0.78571  0.39286  1.0000
  Ag  Ag5343    1.0  0.46429  0.82143  0.35714  1.0000
  Ag  Ag5344    1.0  0.42857  0.78571  0.42857  1.0000
  Ag  Ag5345    1.0  0.42857  0.82143  0.46429  1.0000
  Ag  Ag5346    1.0  0.46429  0.78571  0.46429  1.0000
  Ag  Ag5347    1.0  0.46429  0.82143  0.42857  1.0000
  Ag  Ag5348    1.0  0.42857  0.78571  0.50000  1.0000
  Ag  Ag5349    1.0  0.42857  0.82143  0.53571  1.0000
  Ag  Ag5350    1.0  0.46429  0.78571  0.53571  1.0000
  Ag  Ag5351    1.0  0.46429  0.82143  0.50000  1.0000
  Ag  Ag5352    1.0  0.42857  0.78571  0.57143  1.0000
  Ag  Ag5353    1.0  0.42857  0.82143  0.60714  1.0000
  Ag  Ag5354    1.0  0.46429  0.78571  0.60714  1.0000
  Ag  Ag5355    1.0  0.46429  0.82143  0.57143  1.0000
  Ag  Ag5356    1.0  0.42857  0.78571  0.64286  1.0000
  Ag  Ag5357    1.0  0.42857  0.82143  0.67857  1.0000
  Ag  Ag5358    1.0  0.46429  0.78571  0.67857  1.0000
  Ag  Ag5359    1.0  0.46429  0.82143  0.64286  1.0000
  Ag  Ag5360    1.0  0.42857  0.78571  0.71429  1.0000
  Ag  Ag5361    1.0  0.42857  0.82143  0.75000  1.0000
  Ag  Ag5362    1.0  0.46429  0.78571  0.75000  1.0000
  Ag  Ag5363    1.0  0.46429  0.82143  0.71429  1.0000
  Ag  Ag5364    1.0  0.42857  0.78571  0.78571  1.0000
  Ag  Ag5365    1.0  0.42857  0.82143  0.82143  1.0000
  Ag  Ag5366    1.0  0.46429  0.78571  0.82143  1.0000
  Ag  Ag5367    1.0  0.46429  0.82143  0.78571  1.0000
  Ag  Ag5368    1.0  0.42857  0.78571  0.85714  1.0000
  Ag  Ag5369    1.0  0.42857  0.82143  0.89286  1.0000
  Ag  Ag5370    1.0  0.46429  0.78571  0.89286  1.0000
  Ag  Ag5371    1.0  0.46429  0.82143  0.85714  1.0000
  Ag  Ag5372    1.0  0.42857  0.78571  0.92857  1.0000
  Ag  Ag5373    1.0  0.42857  0.82143  0.96429  1.0000
  Ag  Ag5374    1.0  0.46429  0.78571  0.96429  1.0000
  Ag  Ag5375    1.0  0.46429  0.82143  0.92857  1.0000
  Ag  Ag5376    1.0  0.42857  0.85714  0.00000  1.0000
  Ag  Ag5377    1.0  0.42857  0.89286  0.03571  1.0000
  Ag  Ag5378    1.0  0.46429  0.85714  0.03571  1.0000
  Ag  Ag5379    1.0  0.46429  0.89286  0.00000  1.0000
  Ag  Ag5380    1.0  0.42857  0.85714  0.07143  1.0000
  Ag  Ag5381    1.0  0.42857  0.89286  0.10714  1.0000
  Ag  Ag5382    1.0  0.46429  0.85714  0.10714  1.0000
  Ag  Ag5383    1.0  0.46429  0.89286  0.07143  1.0000
  Ag  Ag5384    1.0  0.42857  0.85714  0.14286  1.0000
  Ag  Ag5385    1.0  0.42857  0.89286  0.17857  1.0000
  Ag  Ag5386    1.0  0.46429  0.85714  0.17857  1.0000
  Ag  Ag5387    1.0  0.46429  0.89286  0.14286  1.0000
  Ag  Ag5388    1.0  0.42857  0.85714  0.21429  1.0000
  Ag  Ag5389    1.0  0.42857  0.89286  0.25000  1.0000
  Ag  Ag5390    1.0  0.46429  0.85714  0.25000  1.0000
  Ag  Ag5391    1.0  0.46429  0.89286  0.21429  1.0000
  Ag  Ag5392    1.0  0.42857  0.85714  0.28571  1.0000
  Ag  Ag5393    1.0  0.42857  0.89286  0.32143  1.0000
  Ag  Ag5394    1.0  0.46429  0.85714  0.32143  1.0000
  Ag  Ag5395    1.0  0.46429  0.89286  0.28571  1.0000
  Ag  Ag5396    1.0  0.42857  0.85714  0.35714  1.0000
  Ag  Ag5397    1.0  0.42857  0.89286  0.39286  1.0000
  Ag  Ag5398    1.0  0.46429  0.85714  0.39286  1.0000
  Ag  Ag5399    1.0  0.46429  0.89286  0.35714  1.0000
  Ag  Ag5400    1.0  0.42857  0.85714  0.42857  1.0000
  Ag  Ag5401    1.0  0.42857  0.89286  0.46429  1.0000
  Ag  Ag5402    1.0  0.46429  0.85714  0.46429  1.0000
  Ag  Ag5403    1.0  0.46429  0.89286  0.42857  1.0000
  Ag  Ag5404    1.0  0.42857  0.85714  0.50000  1.0000
  Ag  Ag5405    1.0  0.42857  0.89286  0.53571  1.0000
  Ag  Ag5406    1.0  0.46429  0.85714  0.53571  1.0000
  Ag  Ag5407    1.0  0.46429  0.89286  0.50000  1.0000
  Ag  Ag5408    1.0  0.42857  0.85714  0.57143  1.0000
  Ag  Ag5409    1.0  0.42857  0.89286  0.60714  1.0000
  Ag  Ag5410    1.0  0.46429  0.85714  0.60714  1.0000
  Ag  Ag5411    1.0  0.46429  0.89286  0.57143  1.0000
  Ag  Ag5412    1.0  0.42857  0.85714  0.64286  1.0000
  Ag  Ag5413    1.0  0.42857  0.89286  0.67857  1.0000
  Ag  Ag5414    1.0  0.46429  0.85714  0.67857  1.0000
  Ag  Ag5415    1.0  0.46429  0.89286  0.64286  1.0000
  Ag  Ag5416    1.0  0.42857  0.85714  0.71429  1.0000
  Ag  Ag5417    1.0  0.42857  0.89286  0.75000  1.0000
  Ag  Ag5418    1.0  0.46429  0.85714  0.75000  1.0000
  Ag  Ag5419    1.0  0.46429  0.89286  0.71429  1.0000
  Ag  Ag5420    1.0  0.42857  0.85714  0.78571  1.0000
  Ag  Ag5421    1.0  0.42857  0.89286  0.82143  1.0000
  Ag  Ag5422    1.0  0.46429  0.85714  0.82143  1.0000
  Ag  Ag5423    1.0  0.46429  0.89286  0.78571  1.0000
  Ag  Ag5424    1.0  0.42857  0.85714  0.85714  1.0000
  Ag  Ag5425    1.0  0.42857  0.89286  0.89286  1.0000
  Ag  Ag5426    1.0  0.46429  0.85714  0.89286  1.0000
  Ag  Ag5427    1.0  0.46429  0.89286  0.85714  1.0000
  Ag  Ag5428    1.0  0.42857  0.85714  0.92857  1.0000
  Ag  Ag5429    1.0  0.42857  0.89286  0.96429  1.0000
  Ag  Ag5430    1.0  0.46429  0.85714  0.96429  1.0000
  Ag  Ag5431    1.0  0.46429  0.89286  0.92857  1.0000
  Ag  Ag5432    1.0  0.42857  0.92857  0.00000  1.0000
  Ag  Ag5433    1.0  0.42857  0.96429  0.03571  1.0000
  Ag  Ag5434    1.0  0.46429  0.92857  0.03571  1.0000
  Ag  Ag5435    1.0  0.46429  0.96429  0.00000  1.0000
  Ag  Ag5436    1.0  0.42857  0.92857  0.07143  1.0000
  Ag  Ag5437    1.0  0.42857  0.96429  0.10714  1.0000
  Ag  Ag5438    1.0  0.46429  0.92857  0.10714  1.0000
  Ag  Ag5439    1.0  0.46429  0.96429  0.07143  1.0000
  Ag  Ag5440    1.0  0.42857  0.92857  0.14286  1.0000
  Ag  Ag5441    1.0  0.42857  0.96429  0.17857  1.0000
  Ag  Ag5442    1.0  0.46429  0.92857  0.17857  1.0000
  Ag  Ag5443    1.0  0.46429  0.96429  0.14286  1.0000
  Ag  Ag5444    1.0  0.42857  0.92857  0.21429  1.0000
  Ag  Ag5445    1.0  0.42857  0.96429  0.25000  1.0000
  Ag  Ag5446    1.0  0.46429  0.92857  0.25000  1.0000
  Ag  Ag5447    1.0  0.46429  0.96429  0.21429  1.0000
  Ag  Ag5448    1.0  0.42857  0.92857  0.28571  1.0000
  Ag  Ag5449    1.0  0.42857  0.96429  0.32143  1.0000
  Ag  Ag5450    1.0  0.46429  0.92857  0.32143  1.0000
  Ag  Ag5451    1.0  0.46429  0.96429  0.28571  1.0000
  Ag  Ag5452    1.0  0.42857  0.92857  0.35714  1.0000
  Ag  Ag5453    1.0  0.42857  0.96429  0.39286  1.0000
  Ag  Ag5454    1.0  0.46429  0.92857  0.39286  1.0000
  Ag  Ag5455    1.0  0.46429  0.96429  0.35714  1.0000
  Ag  Ag5456    1.0  0.42857  0.92857  0.42857  1.0000
  Ag  Ag5457    1.0  0.42857  0.96429  0.46429  1.0000
  Ag  Ag5458    1.0  0.46429  0.92857  0.46429  1.0000
  Ag  Ag5459    1.0  0.46429  0.96429  0.42857  1.0000
  Ag  Ag5460    1.0  0.42857  0.92857  0.50000  1.0000
  Ag  Ag5461    1.0  0.42857  0.96429  0.53571  1.0000
  Ag  Ag5462    1.0  0.46429  0.92857  0.53571  1.0000
  Ag  Ag5463    1.0  0.46429  0.96429  0.50000  1.0000
  Ag  Ag5464    1.0  0.42857  0.92857  0.57143  1.0000
  Ag  Ag5465    1.0  0.42857  0.96429  0.60714  1.0000
  Ag  Ag5466    1.0  0.46429  0.92857  0.60714  1.0000
  Ag  Ag5467    1.0  0.46429  0.96429  0.57143  1.0000
  Ag  Ag5468    1.0  0.42857  0.92857  0.64286  1.0000
  Ag  Ag5469    1.0  0.42857  0.96429  0.67857  1.0000
  Ag  Ag5470    1.0  0.46429  0.92857  0.67857  1.0000
  Ag  Ag5471    1.0  0.46429  0.96429  0.64286  1.0000
  Ag  Ag5472    1.0  0.42857  0.92857  0.71429  1.0000
  Ag  Ag5473    1.0  0.42857  0.96429  0.75000  1.0000
  Ag  Ag5474    1.0  0.46429  0.92857  0.75000  1.0000
  Ag  Ag5475    1.0  0.46429  0.96429  0.71429  1.0000
  Ag  Ag5476    1.0  0.42857  0.92857  0.78571  1.0000
  Ag  Ag5477    1.0  0.42857  0.96429  0.82143  1.0000
  Ag  Ag5478    1.0  0.46429  0.92857  0.82143  1.0000
  Ag  Ag5479    1.0  0.46429  0.96429  0.78571  1.0000
  Ag  Ag5480    1.0  0.42857  0.92857  0.85714  1.0000
  Ag  Ag5481    1.0  0.42857  0.96429  0.89286  1.0000
  Ag  Ag5482    1.0  0.46429  0.92857  0.89286  1.0000
  Ag  Ag5483    1.0  0.46429  0.96429  0.85714  1.0000
  Ag  Ag5484    1.0  0.42857  0.92857  0.92857  1.0000
  Ag  Ag5485    1.0  0.42857  0.96429  0.96429  1.0000
  Ag  Ag5486    1.0  0.46429  0.92857  0.96429  1.0000
  Ag  Ag5487    1.0  0.46429  0.96429  0.92857  1.0000
  Ag  Ag5488    1.0  0.50000  0.00000  0.00000  1.0000
  Ag  Ag5489    1.0  0.50000  0.03571  0.03571  1.0000
  Ag  Ag5490    1.0  0.53571  0.00000  0.03571  1.0000
  Ag  Ag5491    1.0  0.53571  0.03571  0.00000  1.0000
  Ag  Ag5492    1.0  0.50000  0.00000  0.07143  1.0000
  Ag  Ag5493    1.0  0.50000  0.03571  0.10714  1.0000
  Ag  Ag5494    1.0  0.53571  0.00000  0.10714  1.0000
  Ag  Ag5495    1.0  0.53571  0.03571  0.07143  1.0000
  Ag  Ag5496    1.0  0.50000  0.00000  0.14286  1.0000
  Ag  Ag5497    1.0  0.50000  0.03571  0.17857  1.0000
  Ag  Ag5498    1.0  0.53571  0.00000  0.17857  1.0000
  Ag  Ag5499    1.0  0.53571  0.03571  0.14286  1.0000
  Ag  Ag5500    1.0  0.50000  0.00000  0.21429  1.0000
  Ag  Ag5501    1.0  0.50000  0.03571  0.25000  1.0000
  Ag  Ag5502    1.0  0.53571  0.00000  0.25000  1.0000
  Ag  Ag5503    1.0  0.53571  0.03571  0.21429  1.0000
  Ag  Ag5504    1.0  0.50000  0.00000  0.28571  1.0000
  Ag  Ag5505    1.0  0.50000  0.03571  0.32143  1.0000
  Ag  Ag5506    1.0  0.53571  0.00000  0.32143  1.0000
  Ag  Ag5507    1.0  0.53571  0.03571  0.28571  1.0000
  Ag  Ag5508    1.0  0.50000  0.00000  0.35714  1.0000
  Ag  Ag5509    1.0  0.50000  0.03571  0.39286  1.0000
  Ag  Ag5510    1.0  0.53571  0.00000  0.39286  1.0000
  Ag  Ag5511    1.0  0.53571  0.03571  0.35714  1.0000
  Ag  Ag5512    1.0  0.50000  0.00000  0.42857  1.0000
  Ag  Ag5513    1.0  0.50000  0.03571  0.46429  1.0000
  Ag  Ag5514    1.0  0.53571  0.00000  0.46429  1.0000
  Ag  Ag5515    1.0  0.53571  0.03571  0.42857  1.0000
  Ag  Ag5516    1.0  0.50000  0.00000  0.50000  1.0000
  Ag  Ag5517    1.0  0.50000  0.03571  0.53571  1.0000
  Ag  Ag5518    1.0  0.53571  0.00000  0.53571  1.0000
  Ag  Ag5519    1.0  0.53571  0.03571  0.50000  1.0000
  Ag  Ag5520    1.0  0.50000  0.00000  0.57143  1.0000
  Ag  Ag5521    1.0  0.50000  0.03571  0.60714  1.0000
  Ag  Ag5522    1.0  0.53571  0.00000  0.60714  1.0000
  Ag  Ag5523    1.0  0.53571  0.03571  0.57143  1.0000
  Ag  Ag5524    1.0  0.50000  0.00000  0.64286  1.0000
  Ag  Ag5525    1.0  0.50000  0.03571  0.67857  1.0000
  Ag  Ag5526    1.0  0.53571  0.00000  0.67857  1.0000
  Ag  Ag5527    1.0  0.53571  0.03571  0.64286  1.0000
  Ag  Ag5528    1.0  0.50000  0.00000  0.71429  1.0000
  Ag  Ag5529    1.0  0.50000  0.03571  0.75000  1.0000
  Ag  Ag5530    1.0  0.53571  0.00000  0.75000  1.0000
  Ag  Ag5531    1.0  0.53571  0.03571  0.71429  1.0000
  Ag  Ag5532    1.0  0.50000  0.00000  0.78571  1.0000
  Ag  Ag5533    1.0  0.50000  0.03571  0.82143  1.0000
  Ag  Ag5534    1.0  0.53571  0.00000  0.82143  1.0000
  Ag  Ag5535    1.0  0.53571  0.03571  0.78571  1.0000
  Ag  Ag5536    1.0  0.50000  0.00000  0.85714  1.0000
  Ag  Ag5537    1.0  0.50000  0.03571  0.89286  1.0000
  Ag  Ag5538    1.0  0.53571  0.00000  0.89286  1.0000
  Ag  Ag5539    1.0  0.53571  0.03571  0.85714  1.0000
  Ag  Ag5540    1.0  0.50000  0.00000  0.92857  1.0000
  Ag  Ag5541    1.0  0.50000  0.03571  0.96429  1.0000
  Ag  Ag5542    1.0  0.53571  0.00000  0.96429  1.0000
  Ag  Ag5543    1.0  0.53571  0.03571  0.92857  1.0000
  Ag  Ag5544    1.0  0.50000  0.07143  0.00000  1.0000
  Ag  Ag5545    1.0  0.50000  0.10714  0.03571  1.0000
  Ag  Ag5546    1.0  0.53571  0.07143  0.03571  1.0000
  Ag  Ag5547    1.0  0.53571  0.10714  0.00000  1.0000
  Ag  Ag5548    1.0  0.50000  0.07143  0.07143  1.0000
  Ag  Ag5549    1.0  0.50000  0.10714  0.10714  1.0000
  Ag  Ag5550    1.0  0.53571  0.07143  0.10714  1.0000
  Ag  Ag5551    1.0  0.53571  0.10714  0.07143  1.0000
  Ag  Ag5552    1.0  0.50000  0.07143  0.14286  1.0000
  Ag  Ag5553    1.0  0.50000  0.10714  0.17857  1.0000
  Ag  Ag5554    1.0  0.53571  0.07143  0.17857  1.0000
  Ag  Ag5555    1.0  0.53571  0.10714  0.14286  1.0000
  Ag  Ag5556    1.0  0.50000  0.07143  0.21429  1.0000
  Ag  Ag5557    1.0  0.50000  0.10714  0.25000  1.0000
  Ag  Ag5558    1.0  0.53571  0.07143  0.25000  1.0000
  Ag  Ag5559    1.0  0.53571  0.10714  0.21429  1.0000
  Ag  Ag5560    1.0  0.50000  0.07143  0.28571  1.0000
  Ag  Ag5561    1.0  0.50000  0.10714  0.32143  1.0000
  Ag  Ag5562    1.0  0.53571  0.07143  0.32143  1.0000
  Ag  Ag5563    1.0  0.53571  0.10714  0.28571  1.0000
  Ag  Ag5564    1.0  0.50000  0.07143  0.35714  1.0000
  Ag  Ag5565    1.0  0.50000  0.10714  0.39286  1.0000
  Ag  Ag5566    1.0  0.53571  0.07143  0.39286  1.0000
  Ag  Ag5567    1.0  0.53571  0.10714  0.35714  1.0000
  Ag  Ag5568    1.0  0.50000  0.07143  0.42857  1.0000
  Ag  Ag5569    1.0  0.50000  0.10714  0.46429  1.0000
  Ag  Ag5570    1.0  0.53571  0.07143  0.46429  1.0000
  Ag  Ag5571    1.0  0.53571  0.10714  0.42857  1.0000
  Ag  Ag5572    1.0  0.50000  0.07143  0.50000  1.0000
  Ag  Ag5573    1.0  0.50000  0.10714  0.53571  1.0000
  Ag  Ag5574    1.0  0.53571  0.07143  0.53571  1.0000
  Ag  Ag5575    1.0  0.53571  0.10714  0.50000  1.0000
  Ag  Ag5576    1.0  0.50000  0.07143  0.57143  1.0000
  Ag  Ag5577    1.0  0.50000  0.10714  0.60714  1.0000
  Ag  Ag5578    1.0  0.53571  0.07143  0.60714  1.0000
  Ag  Ag5579    1.0  0.53571  0.10714  0.57143  1.0000
  Ag  Ag5580    1.0  0.50000  0.07143  0.64286  1.0000
  Ag  Ag5581    1.0  0.50000  0.10714  0.67857  1.0000
  Ag  Ag5582    1.0  0.53571  0.07143  0.67857  1.0000
  Ag  Ag5583    1.0  0.53571  0.10714  0.64286  1.0000
  Ag  Ag5584    1.0  0.50000  0.07143  0.71429  1.0000
  Ag  Ag5585    1.0  0.50000  0.10714  0.75000  1.0000
  Ag  Ag5586    1.0  0.53571  0.07143  0.75000  1.0000
  Ag  Ag5587    1.0  0.53571  0.10714  0.71429  1.0000
  Ag  Ag5588    1.0  0.50000  0.07143  0.78571  1.0000
  Ag  Ag5589    1.0  0.50000  0.10714  0.82143  1.0000
  Ag  Ag5590    1.0  0.53571  0.07143  0.82143  1.0000
  Ag  Ag5591    1.0  0.53571  0.10714  0.78571  1.0000
  Ag  Ag5592    1.0  0.50000  0.07143  0.85714  1.0000
  Ag  Ag5593    1.0  0.50000  0.10714  0.89286  1.0000
  Ag  Ag5594    1.0  0.53571  0.07143  0.89286  1.0000
  Ag  Ag5595    1.0  0.53571  0.10714  0.85714  1.0000
  Ag  Ag5596    1.0  0.50000  0.07143  0.92857  1.0000
  Ag  Ag5597    1.0  0.50000  0.10714  0.96429  1.0000
  Ag  Ag5598    1.0  0.53571  0.07143  0.96429  1.0000
  Ag  Ag5599    1.0  0.53571  0.10714  0.92857  1.0000
  Ag  Ag5600    1.0  0.50000  0.14286  0.00000  1.0000
  Ag  Ag5601    1.0  0.50000  0.17857  0.03571  1.0000
  Ag  Ag5602    1.0  0.53571  0.14286  0.03571  1.0000
  Ag  Ag5603    1.0  0.53571  0.17857  0.00000  1.0000
  Ag  Ag5604    1.0  0.50000  0.14286  0.07143  1.0000
  Ag  Ag5605    1.0  0.50000  0.17857  0.10714  1.0000
  Ag  Ag5606    1.0  0.53571  0.14286  0.10714  1.0000
  Ag  Ag5607    1.0  0.53571  0.17857  0.07143  1.0000
  Ag  Ag5608    1.0  0.50000  0.14286  0.14286  1.0000
  Ag  Ag5609    1.0  0.50000  0.17857  0.17857  1.0000
  Ag  Ag5610    1.0  0.53571  0.14286  0.17857  1.0000
  Ag  Ag5611    1.0  0.53571  0.17857  0.14286  1.0000
  Ag  Ag5612    1.0  0.50000  0.14286  0.21429  1.0000
  Ag  Ag5613    1.0  0.50000  0.17857  0.25000  1.0000
  Ag  Ag5614    1.0  0.53571  0.14286  0.25000  1.0000
  Ag  Ag5615    1.0  0.53571  0.17857  0.21429  1.0000
  Ag  Ag5616    1.0  0.50000  0.14286  0.28571  1.0000
  Ag  Ag5617    1.0  0.50000  0.17857  0.32143  1.0000
  Ag  Ag5618    1.0  0.53571  0.14286  0.32143  1.0000
  Ag  Ag5619    1.0  0.53571  0.17857  0.28571  1.0000
  Ag  Ag5620    1.0  0.50000  0.14286  0.35714  1.0000
  Ag  Ag5621    1.0  0.50000  0.17857  0.39286  1.0000
  Ag  Ag5622    1.0  0.53571  0.14286  0.39286  1.0000
  Ag  Ag5623    1.0  0.53571  0.17857  0.35714  1.0000
  Ag  Ag5624    1.0  0.50000  0.14286  0.42857  1.0000
  Ag  Ag5625    1.0  0.50000  0.17857  0.46429  1.0000
  Ag  Ag5626    1.0  0.53571  0.14286  0.46429  1.0000
  Ag  Ag5627    1.0  0.53571  0.17857  0.42857  1.0000
  Ag  Ag5628    1.0  0.50000  0.14286  0.50000  1.0000
  Ag  Ag5629    1.0  0.50000  0.17857  0.53571  1.0000
  Ag  Ag5630    1.0  0.53571  0.14286  0.53571  1.0000
  Ag  Ag5631    1.0  0.53571  0.17857  0.50000  1.0000
  Ag  Ag5632    1.0  0.50000  0.14286  0.57143  1.0000
  Ag  Ag5633    1.0  0.50000  0.17857  0.60714  1.0000
  Ag  Ag5634    1.0  0.53571  0.14286  0.60714  1.0000
  Ag  Ag5635    1.0  0.53571  0.17857  0.57143  1.0000
  Ag  Ag5636    1.0  0.50000  0.14286  0.64286  1.0000
  Ag  Ag5637    1.0  0.50000  0.17857  0.67857  1.0000
  Ag  Ag5638    1.0  0.53571  0.14286  0.67857  1.0000
  Ag  Ag5639    1.0  0.53571  0.17857  0.64286  1.0000
  Ag  Ag5640    1.0  0.50000  0.14286  0.71429  1.0000
  Ag  Ag5641    1.0  0.50000  0.17857  0.75000  1.0000
  Ag  Ag5642    1.0  0.53571  0.14286  0.75000  1.0000
  Ag  Ag5643    1.0  0.53571  0.17857  0.71429  1.0000
  Ag  Ag5644    1.0  0.50000  0.14286  0.78571  1.0000
  Ag  Ag5645    1.0  0.50000  0.17857  0.82143  1.0000
  Ag  Ag5646    1.0  0.53571  0.14286  0.82143  1.0000
  Ag  Ag5647    1.0  0.53571  0.17857  0.78571  1.0000
  Ag  Ag5648    1.0  0.50000  0.14286  0.85714  1.0000
  Ag  Ag5649    1.0  0.50000  0.17857  0.89286  1.0000
  Ag  Ag5650    1.0  0.53571  0.14286  0.89286  1.0000
  Ag  Ag5651    1.0  0.53571  0.17857  0.85714  1.0000
  Ag  Ag5652    1.0  0.50000  0.14286  0.92857  1.0000
  Ag  Ag5653    1.0  0.50000  0.17857  0.96429  1.0000
  Ag  Ag5654    1.0  0.53571  0.14286  0.96429  1.0000
  Ag  Ag5655    1.0  0.53571  0.17857  0.92857  1.0000
  Ag  Ag5656    1.0  0.50000  0.21429  0.00000  1.0000
  Ag  Ag5657    1.0  0.50000  0.25000  0.03571  1.0000
  Ag  Ag5658    1.0  0.53571  0.21429  0.03571  1.0000
  Ag  Ag5659    1.0  0.53571  0.25000  0.00000  1.0000
  Ag  Ag5660    1.0  0.50000  0.21429  0.07143  1.0000
  Ag  Ag5661    1.0  0.50000  0.25000  0.10714  1.0000
  Ag  Ag5662    1.0  0.53571  0.21429  0.10714  1.0000
  Ag  Ag5663    1.0  0.53571  0.25000  0.07143  1.0000
  Ag  Ag5664    1.0  0.50000  0.21429  0.14286  1.0000
  Ag  Ag5665    1.0  0.50000  0.25000  0.17857  1.0000
  Ag  Ag5666    1.0  0.53571  0.21429  0.17857  1.0000
  Ag  Ag5667    1.0  0.53571  0.25000  0.14286  1.0000
  Ag  Ag5668    1.0  0.50000  0.21429  0.21429  1.0000
  Ag  Ag5669    1.0  0.50000  0.25000  0.25000  1.0000
  Ag  Ag5670    1.0  0.53571  0.21429  0.25000  1.0000
  Ag  Ag5671    1.0  0.53571  0.25000  0.21429  1.0000
  Ag  Ag5672    1.0  0.50000  0.21429  0.28571  1.0000
  Ag  Ag5673    1.0  0.50000  0.25000  0.32143  1.0000
  Ag  Ag5674    1.0  0.53571  0.21429  0.32143  1.0000
  Ag  Ag5675    1.0  0.53571  0.25000  0.28571  1.0000
  Ag  Ag5676    1.0  0.50000  0.21429  0.35714  1.0000
  Ag  Ag5677    1.0  0.50000  0.25000  0.39286  1.0000
  Ag  Ag5678    1.0  0.53571  0.21429  0.39286  1.0000
  Ag  Ag5679    1.0  0.53571  0.25000  0.35714  1.0000
  Ag  Ag5680    1.0  0.50000  0.21429  0.42857  1.0000
  Ag  Ag5681    1.0  0.50000  0.25000  0.46429  1.0000
  Ag  Ag5682    1.0  0.53571  0.21429  0.46429  1.0000
  Ag  Ag5683    1.0  0.53571  0.25000  0.42857  1.0000
  Ag  Ag5684    1.0  0.50000  0.21429  0.50000  1.0000
  Ag  Ag5685    1.0  0.50000  0.25000  0.53571  1.0000
  Ag  Ag5686    1.0  0.53571  0.21429  0.53571  1.0000
  Ag  Ag5687    1.0  0.53571  0.25000  0.50000  1.0000
  Ag  Ag5688    1.0  0.50000  0.21429  0.57143  1.0000
  Ag  Ag5689    1.0  0.50000  0.25000  0.60714  1.0000
  Ag  Ag5690    1.0  0.53571  0.21429  0.60714  1.0000
  Ag  Ag5691    1.0  0.53571  0.25000  0.57143  1.0000
  Ag  Ag5692    1.0  0.50000  0.21429  0.64286  1.0000
  Ag  Ag5693    1.0  0.50000  0.25000  0.67857  1.0000
  Ag  Ag5694    1.0  0.53571  0.21429  0.67857  1.0000
  Ag  Ag5695    1.0  0.53571  0.25000  0.64286  1.0000
  Ag  Ag5696    1.0  0.50000  0.21429  0.71429  1.0000
  Ag  Ag5697    1.0  0.50000  0.25000  0.75000  1.0000
  Ag  Ag5698    1.0  0.53571  0.21429  0.75000  1.0000
  Ag  Ag5699    1.0  0.53571  0.25000  0.71429  1.0000
  Ag  Ag5700    1.0  0.50000  0.21429  0.78571  1.0000
  Ag  Ag5701    1.0  0.50000  0.25000  0.82143  1.0000
  Ag  Ag5702    1.0  0.53571  0.21429  0.82143  1.0000
  Ag  Ag5703    1.0  0.53571  0.25000  0.78571  1.0000
  Ag  Ag5704    1.0  0.50000  0.21429  0.85714  1.0000
  Ag  Ag5705    1.0  0.50000  0.25000  0.89286  1.0000
  Ag  Ag5706    1.0  0.53571  0.21429  0.89286  1.0000
  Ag  Ag5707    1.0  0.53571  0.25000  0.85714  1.0000
  Ag  Ag5708    1.0  0.50000  0.21429  0.92857  1.0000
  Ag  Ag5709    1.0  0.50000  0.25000  0.96429  1.0000
  Ag  Ag5710    1.0  0.53571  0.21429  0.96429  1.0000
  Ag  Ag5711    1.0  0.53571  0.25000  0.92857  1.0000
  Ag  Ag5712    1.0  0.50000  0.28571  0.00000  1.0000
  Ag  Ag5713    1.0  0.50000  0.32143  0.03571  1.0000
  Ag  Ag5714    1.0  0.53571  0.28571  0.03571  1.0000
  Ag  Ag5715    1.0  0.53571  0.32143  0.00000  1.0000
  Ag  Ag5716    1.0  0.50000  0.28571  0.07143  1.0000
  Ag  Ag5717    1.0  0.50000  0.32143  0.10714  1.0000
  Ag  Ag5718    1.0  0.53571  0.28571  0.10714  1.0000
  Ag  Ag5719    1.0  0.53571  0.32143  0.07143  1.0000
  Ag  Ag5720    1.0  0.50000  0.28571  0.14286  1.0000
  Ag  Ag5721    1.0  0.50000  0.32143  0.17857  1.0000
  Ag  Ag5722    1.0  0.53571  0.28571  0.17857  1.0000
  Ag  Ag5723    1.0  0.53571  0.32143  0.14286  1.0000
  Ag  Ag5724    1.0  0.50000  0.28571  0.21429  1.0000
  Ag  Ag5725    1.0  0.50000  0.32143  0.25000  1.0000
  Ag  Ag5726    1.0  0.53571  0.28571  0.25000  1.0000
  Ag  Ag5727    1.0  0.53571  0.32143  0.21429  1.0000
  Ag  Ag5728    1.0  0.50000  0.28571  0.28571  1.0000
  Ag  Ag5729    1.0  0.50000  0.32143  0.32143  1.0000
  Ag  Ag5730    1.0  0.53571  0.28571  0.32143  1.0000
  Ag  Ag5731    1.0  0.53571  0.32143  0.28571  1.0000
  Ag  Ag5732    1.0  0.50000  0.28571  0.35714  1.0000
  Ag  Ag5733    1.0  0.50000  0.32143  0.39286  1.0000
  Ag  Ag5734    1.0  0.53571  0.28571  0.39286  1.0000
  Ag  Ag5735    1.0  0.53571  0.32143  0.35714  1.0000
  Ag  Ag5736    1.0  0.50000  0.28571  0.42857  1.0000
  Ag  Ag5737    1.0  0.50000  0.32143  0.46429  1.0000
  Ag  Ag5738    1.0  0.53571  0.28571  0.46429  1.0000
  Ag  Ag5739    1.0  0.53571  0.32143  0.42857  1.0000
  Ag  Ag5740    1.0  0.50000  0.28571  0.50000  1.0000
  Ag  Ag5741    1.0  0.50000  0.32143  0.53571  1.0000
  Ag  Ag5742    1.0  0.53571  0.28571  0.53571  1.0000
  Ag  Ag5743    1.0  0.53571  0.32143  0.50000  1.0000
  Ag  Ag5744    1.0  0.50000  0.28571  0.57143  1.0000
  Ag  Ag5745    1.0  0.50000  0.32143  0.60714  1.0000
  Ag  Ag5746    1.0  0.53571  0.28571  0.60714  1.0000
  Ag  Ag5747    1.0  0.53571  0.32143  0.57143  1.0000
  Ag  Ag5748    1.0  0.50000  0.28571  0.64286  1.0000
  Ag  Ag5749    1.0  0.50000  0.32143  0.67857  1.0000
  Ag  Ag5750    1.0  0.53571  0.28571  0.67857  1.0000
  Ag  Ag5751    1.0  0.53571  0.32143  0.64286  1.0000
  Ag  Ag5752    1.0  0.50000  0.28571  0.71429  1.0000
  Ag  Ag5753    1.0  0.50000  0.32143  0.75000  1.0000
  Ag  Ag5754    1.0  0.53571  0.28571  0.75000  1.0000
  Ag  Ag5755    1.0  0.53571  0.32143  0.71429  1.0000
  Ag  Ag5756    1.0  0.50000  0.28571  0.78571  1.0000
  Ag  Ag5757    1.0  0.50000  0.32143  0.82143  1.0000
  Ag  Ag5758    1.0  0.53571  0.28571  0.82143  1.0000
  Ag  Ag5759    1.0  0.53571  0.32143  0.78571  1.0000
  Ag  Ag5760    1.0  0.50000  0.28571  0.85714  1.0000
  Ag  Ag5761    1.0  0.50000  0.32143  0.89286  1.0000
  Ag  Ag5762    1.0  0.53571  0.28571  0.89286  1.0000
  Ag  Ag5763    1.0  0.53571  0.32143  0.85714  1.0000
  Ag  Ag5764    1.0  0.50000  0.28571  0.92857  1.0000
  Ag  Ag5765    1.0  0.50000  0.32143  0.96429  1.0000
  Ag  Ag5766    1.0  0.53571  0.28571  0.96429  1.0000
  Ag  Ag5767    1.0  0.53571  0.32143  0.92857  1.0000
  Ag  Ag5768    1.0  0.50000  0.35714  0.00000  1.0000
  Ag  Ag5769    1.0  0.50000  0.39286  0.03571  1.0000
  Ag  Ag5770    1.0  0.53571  0.35714  0.03571  1.0000
  Ag  Ag5771    1.0  0.53571  0.39286  0.00000  1.0000
  Ag  Ag5772    1.0  0.50000  0.35714  0.07143  1.0000
  Ag  Ag5773    1.0  0.50000  0.39286  0.10714  1.0000
  Ag  Ag5774    1.0  0.53571  0.35714  0.10714  1.0000
  Ag  Ag5775    1.0  0.53571  0.39286  0.07143  1.0000
  Ag  Ag5776    1.0  0.50000  0.35714  0.14286  1.0000
  Ag  Ag5777    1.0  0.50000  0.39286  0.17857  1.0000
  Ag  Ag5778    1.0  0.53571  0.35714  0.17857  1.0000
  Ag  Ag5779    1.0  0.53571  0.39286  0.14286  1.0000
  Ag  Ag5780    1.0  0.50000  0.35714  0.21429  1.0000
  Ag  Ag5781    1.0  0.50000  0.39286  0.25000  1.0000
  Ag  Ag5782    1.0  0.53571  0.35714  0.25000  1.0000
  Ag  Ag5783    1.0  0.53571  0.39286  0.21429  1.0000
  Ag  Ag5784    1.0  0.50000  0.35714  0.28571  1.0000
  Ag  Ag5785    1.0  0.50000  0.39286  0.32143  1.0000
  Ag  Ag5786    1.0  0.53571  0.35714  0.32143  1.0000
  Ag  Ag5787    1.0  0.53571  0.39286  0.28571  1.0000
  Ag  Ag5788    1.0  0.50000  0.35714  0.35714  1.0000
  Ag  Ag5789    1.0  0.50000  0.39286  0.39286  1.0000
  Ag  Ag5790    1.0  0.53571  0.35714  0.39286  1.0000
  Ag  Ag5791    1.0  0.53571  0.39286  0.35714  1.0000
  Ag  Ag5792    1.0  0.50000  0.35714  0.42857  1.0000
  Ag  Ag5793    1.0  0.50000  0.39286  0.46429  1.0000
  Ag  Ag5794    1.0  0.53571  0.35714  0.46429  1.0000
  Ag  Ag5795    1.0  0.53571  0.39286  0.42857  1.0000
  Ag  Ag5796    1.0  0.50000  0.35714  0.50000  1.0000
  Ag  Ag5797    1.0  0.50000  0.39286  0.53571  1.0000
  Ag  Ag5798    1.0  0.53571  0.35714  0.53571  1.0000
  Ag  Ag5799    1.0  0.53571  0.39286  0.50000  1.0000
  Ag  Ag5800    1.0  0.50000  0.35714  0.57143  1.0000
  Ag  Ag5801    1.0  0.50000  0.39286  0.60714  1.0000
  Ag  Ag5802    1.0  0.53571  0.35714  0.60714  1.0000
  Ag  Ag5803    1.0  0.53571  0.39286  0.57143  1.0000
  Ag  Ag5804    1.0  0.50000  0.35714  0.64286  1.0000
  Ag  Ag5805    1.0  0.50000  0.39286  0.67857  1.0000
  Ag  Ag5806    1.0  0.53571  0.35714  0.67857  1.0000
  Ag  Ag5807    1.0  0.53571  0.39286  0.64286  1.0000
  Ag  Ag5808    1.0  0.50000  0.35714  0.71429  1.0000
  Ag  Ag5809    1.0  0.50000  0.39286  0.75000  1.0000
  Ag  Ag5810    1.0  0.53571  0.35714  0.75000  1.0000
  Ag  Ag5811    1.0  0.53571  0.39286  0.71429  1.0000
  Ag  Ag5812    1.0  0.50000  0.35714  0.78571  1.0000
  Ag  Ag5813    1.0  0.50000  0.39286  0.82143  1.0000
  Ag  Ag5814    1.0  0.53571  0.35714  0.82143  1.0000
  Ag  Ag5815    1.0  0.53571  0.39286  0.78571  1.0000
  Ag  Ag5816    1.0  0.50000  0.35714  0.85714  1.0000
  Ag  Ag5817    1.0  0.50000  0.39286  0.89286  1.0000
  Ag  Ag5818    1.0  0.53571  0.35714  0.89286  1.0000
  Ag  Ag5819    1.0  0.53571  0.39286  0.85714  1.0000
  Ag  Ag5820    1.0  0.50000  0.35714  0.92857  1.0000
  Ag  Ag5821    1.0  0.50000  0.39286  0.96429  1.0000
  Ag  Ag5822    1.0  0.53571  0.35714  0.96429  1.0000
  Ag  Ag5823    1.0  0.53571  0.39286  0.92857  1.0000
  Ag  Ag5824    1.0  0.50000  0.42857  0.00000  1.0000
  Ag  Ag5825    1.0  0.50000  0.46429  0.03571  1.0000
  Ag  Ag5826    1.0  0.53571  0.42857  0.03571  1.0000
  Ag  Ag5827    1.0  0.53571  0.46429  0.00000  1.0000
  Ag  Ag5828    1.0  0.50000  0.42857  0.07143  1.0000
  Ag  Ag5829    1.0  0.50000  0.46429  0.10714  1.0000
  Ag  Ag5830    1.0  0.53571  0.42857  0.10714  1.0000
  Ag  Ag5831    1.0  0.53571  0.46429  0.07143  1.0000
  Ag  Ag5832    1.0  0.50000  0.42857  0.14286  1.0000
  Ag  Ag5833    1.0  0.50000  0.46429  0.17857  1.0000
  Ag  Ag5834    1.0  0.53571  0.42857  0.17857  1.0000
  Ag  Ag5835    1.0  0.53571  0.46429  0.14286  1.0000
  Ag  Ag5836    1.0  0.50000  0.42857  0.21429  1.0000
  Ag  Ag5837    1.0  0.50000  0.46429  0.25000  1.0000
  Ag  Ag5838    1.0  0.53571  0.42857  0.25000  1.0000
  Ag  Ag5839    1.0  0.53571  0.46429  0.21429  1.0000
  Ag  Ag5840    1.0  0.50000  0.42857  0.28571  1.0000
  Ag  Ag5841    1.0  0.50000  0.46429  0.32143  1.0000
  Ag  Ag5842    1.0  0.53571  0.42857  0.32143  1.0000
  Ag  Ag5843    1.0  0.53571  0.46429  0.28571  1.0000
  Ag  Ag5844    1.0  0.50000  0.42857  0.35714  1.0000
  Ag  Ag5845    1.0  0.50000  0.46429  0.39286  1.0000
  Ag  Ag5846    1.0  0.53571  0.42857  0.39286  1.0000
  Ag  Ag5847    1.0  0.53571  0.46429  0.35714  1.0000
  Ag  Ag5848    1.0  0.50000  0.42857  0.42857  1.0000
  Ag  Ag5849    1.0  0.50000  0.46429  0.46429  1.0000
  Ag  Ag5850    1.0  0.53571  0.42857  0.46429  1.0000
  Ag  Ag5851    1.0  0.53571  0.46429  0.42857  1.0000
  Ag  Ag5852    1.0  0.50000  0.42857  0.50000  1.0000
  Ag  Ag5853    1.0  0.50000  0.46429  0.53571  1.0000
  Ag  Ag5854    1.0  0.53571  0.42857  0.53571  1.0000
  Ag  Ag5855    1.0  0.53571  0.46429  0.50000  1.0000
  Ag  Ag5856    1.0  0.50000  0.42857  0.57143  1.0000
  Ag  Ag5857    1.0  0.50000  0.46429  0.60714  1.0000
  Ag  Ag5858    1.0  0.53571  0.42857  0.60714  1.0000
  Ag  Ag5859    1.0  0.53571  0.46429  0.57143  1.0000
  Ag  Ag5860    1.0  0.50000  0.42857  0.64286  1.0000
  Ag  Ag5861    1.0  0.50000  0.46429  0.67857  1.0000
  Ag  Ag5862    1.0  0.53571  0.42857  0.67857  1.0000
  Ag  Ag5863    1.0  0.53571  0.46429  0.64286  1.0000
  Ag  Ag5864    1.0  0.50000  0.42857  0.71429  1.0000
  Ag  Ag5865    1.0  0.50000  0.46429  0.75000  1.0000
  Ag  Ag5866    1.0  0.53571  0.42857  0.75000  1.0000
  Ag  Ag5867    1.0  0.53571  0.46429  0.71429  1.0000
  Ag  Ag5868    1.0  0.50000  0.42857  0.78571  1.0000
  Ag  Ag5869    1.0  0.50000  0.46429  0.82143  1.0000
  Ag  Ag5870    1.0  0.53571  0.42857  0.82143  1.0000
  Ag  Ag5871    1.0  0.53571  0.46429  0.78571  1.0000
  Ag  Ag5872    1.0  0.50000  0.42857  0.85714  1.0000
  Ag  Ag5873    1.0  0.50000  0.46429  0.89286  1.0000
  Ag  Ag5874    1.0  0.53571  0.42857  0.89286  1.0000
  Ag  Ag5875    1.0  0.53571  0.46429  0.85714  1.0000
  Ag  Ag5876    1.0  0.50000  0.42857  0.92857  1.0000
  Ag  Ag5877    1.0  0.50000  0.46429  0.96429  1.0000
  Ag  Ag5878    1.0  0.53571  0.42857  0.96429  1.0000
  Ag  Ag5879    1.0  0.53571  0.46429  0.92857  1.0000
  Ag  Ag5880    1.0  0.50000  0.50000  0.00000  1.0000
  Ag  Ag5881    1.0  0.50000  0.53571  0.03571  1.0000
  Ag  Ag5882    1.0  0.53571  0.50000  0.03571  1.0000
  Ag  Ag5883    1.0  0.53571  0.53571  0.00000  1.0000
  Ag  Ag5884    1.0  0.50000  0.50000  0.07143  1.0000
  Ag  Ag5885    1.0  0.50000  0.53571  0.10714  1.0000
  Ag  Ag5886    1.0  0.53571  0.50000  0.10714  1.0000
  Ag  Ag5887    1.0  0.53571  0.53571  0.07143  1.0000
  Ag  Ag5888    1.0  0.50000  0.50000  0.14286  1.0000
  Ag  Ag5889    1.0  0.50000  0.53571  0.17857  1.0000
  Ag  Ag5890    1.0  0.53571  0.50000  0.17857  1.0000
  Ag  Ag5891    1.0  0.53571  0.53571  0.14286  1.0000
  Ag  Ag5892    1.0  0.50000  0.50000  0.21429  1.0000
  Ag  Ag5893    1.0  0.50000  0.53571  0.25000  1.0000
  Ag  Ag5894    1.0  0.53571  0.50000  0.25000  1.0000
  Ag  Ag5895    1.0  0.53571  0.53571  0.21429  1.0000
  Ag  Ag5896    1.0  0.50000  0.50000  0.28571  1.0000
  Ag  Ag5897    1.0  0.50000  0.53571  0.32143  1.0000
  Ag  Ag5898    1.0  0.53571  0.50000  0.32143  1.0000
  Ag  Ag5899    1.0  0.53571  0.53571  0.28571  1.0000
  Ag  Ag5900    1.0  0.50000  0.50000  0.35714  1.0000
  Ag  Ag5901    1.0  0.50000  0.53571  0.39286  1.0000
  Ag  Ag5902    1.0  0.53571  0.50000  0.39286  1.0000
  Ag  Ag5903    1.0  0.53571  0.53571  0.35714  1.0000
  Ag  Ag5904    1.0  0.50000  0.50000  0.42857  1.0000
  Ag  Ag5905    1.0  0.50000  0.53571  0.46429  1.0000
  Ag  Ag5906    1.0  0.53571  0.50000  0.46429  1.0000
  Ag  Ag5907    1.0  0.53571  0.53571  0.42857  1.0000
  Ag  Ag5908    1.0  0.50000  0.50000  0.50000  1.0000
  Ag  Ag5909    1.0  0.50000  0.53571  0.53571  1.0000
  Ag  Ag5910    1.0  0.53571  0.50000  0.53571  1.0000
  Ag  Ag5911    1.0  0.53571  0.53571  0.50000  1.0000
  Ag  Ag5912    1.0  0.50000  0.50000  0.57143  1.0000
  Ag  Ag5913    1.0  0.50000  0.53571  0.60714  1.0000
  Ag  Ag5914    1.0  0.53571  0.50000  0.60714  1.0000
  Ag  Ag5915    1.0  0.53571  0.53571  0.57143  1.0000
  Ag  Ag5916    1.0  0.50000  0.50000  0.64286  1.0000
  Ag  Ag5917    1.0  0.50000  0.53571  0.67857  1.0000
  Ag  Ag5918    1.0  0.53571  0.50000  0.67857  1.0000
  Ag  Ag5919    1.0  0.53571  0.53571  0.64286  1.0000
  Ag  Ag5920    1.0  0.50000  0.50000  0.71429  1.0000
  Ag  Ag5921    1.0  0.50000  0.53571  0.75000  1.0000
  Ag  Ag5922    1.0  0.53571  0.50000  0.75000  1.0000
  Ag  Ag5923    1.0  0.53571  0.53571  0.71429  1.0000
  Ag  Ag5924    1.0  0.50000  0.50000  0.78571  1.0000
  Ag  Ag5925    1.0  0.50000  0.53571  0.82143  1.0000
  Ag  Ag5926    1.0  0.53571  0.50000  0.82143  1.0000
  Ag  Ag5927    1.0  0.53571  0.53571  0.78571  1.0000
  Ag  Ag5928    1.0  0.50000  0.50000  0.85714  1.0000
  Ag  Ag5929    1.0  0.50000  0.53571  0.89286  1.0000
  Ag  Ag5930    1.0  0.53571  0.50000  0.89286  1.0000
  Ag  Ag5931    1.0  0.53571  0.53571  0.85714  1.0000
  Ag  Ag5932    1.0  0.50000  0.50000  0.92857  1.0000
  Ag  Ag5933    1.0  0.50000  0.53571  0.96429  1.0000
  Ag  Ag5934    1.0  0.53571  0.50000  0.96429  1.0000
  Ag  Ag5935    1.0  0.53571  0.53571  0.92857  1.0000
  Ag  Ag5936    1.0  0.50000  0.57143  0.00000  1.0000
  Ag  Ag5937    1.0  0.50000  0.60714  0.03571  1.0000
  Ag  Ag5938    1.0  0.53571  0.57143  0.03571  1.0000
  Ag  Ag5939    1.0  0.53571  0.60714  0.00000  1.0000
  Ag  Ag5940    1.0  0.50000  0.57143  0.07143  1.0000
  Ag  Ag5941    1.0  0.50000  0.60714  0.10714  1.0000
  Ag  Ag5942    1.0  0.53571  0.57143  0.10714  1.0000
  Ag  Ag5943    1.0  0.53571  0.60714  0.07143  1.0000
  Ag  Ag5944    1.0  0.50000  0.57143  0.14286  1.0000
  Ag  Ag5945    1.0  0.50000  0.60714  0.17857  1.0000
  Ag  Ag5946    1.0  0.53571  0.57143  0.17857  1.0000
  Ag  Ag5947    1.0  0.53571  0.60714  0.14286  1.0000
  Ag  Ag5948    1.0  0.50000  0.57143  0.21429  1.0000
  Ag  Ag5949    1.0  0.50000  0.60714  0.25000  1.0000
  Ag  Ag5950    1.0  0.53571  0.57143  0.25000  1.0000
  Ag  Ag5951    1.0  0.53571  0.60714  0.21429  1.0000
  Ag  Ag5952    1.0  0.50000  0.57143  0.28571  1.0000
  Ag  Ag5953    1.0  0.50000  0.60714  0.32143  1.0000
  Ag  Ag5954    1.0  0.53571  0.57143  0.32143  1.0000
  Ag  Ag5955    1.0  0.53571  0.60714  0.28571  1.0000
  Ag  Ag5956    1.0  0.50000  0.57143  0.35714  1.0000
  Ag  Ag5957    1.0  0.50000  0.60714  0.39286  1.0000
  Ag  Ag5958    1.0  0.53571  0.57143  0.39286  1.0000
  Ag  Ag5959    1.0  0.53571  0.60714  0.35714  1.0000
  Ag  Ag5960    1.0  0.50000  0.57143  0.42857  1.0000
  Ag  Ag5961    1.0  0.50000  0.60714  0.46429  1.0000
  Ag  Ag5962    1.0  0.53571  0.57143  0.46429  1.0000
  Ag  Ag5963    1.0  0.53571  0.60714  0.42857  1.0000
  Ag  Ag5964    1.0  0.50000  0.57143  0.50000  1.0000
  Ag  Ag5965    1.0  0.50000  0.60714  0.53571  1.0000
  Ag  Ag5966    1.0  0.53571  0.57143  0.53571  1.0000
  Ag  Ag5967    1.0  0.53571  0.60714  0.50000  1.0000
  Ag  Ag5968    1.0  0.50000  0.57143  0.57143  1.0000
  Ag  Ag5969    1.0  0.50000  0.60714  0.60714  1.0000
  Ag  Ag5970    1.0  0.53571  0.57143  0.60714  1.0000
  Ag  Ag5971    1.0  0.53571  0.60714  0.57143  1.0000
  Ag  Ag5972    1.0  0.50000  0.57143  0.64286  1.0000
  Ag  Ag5973    1.0  0.50000  0.60714  0.67857  1.0000
  Ag  Ag5974    1.0  0.53571  0.57143  0.67857  1.0000
  Ag  Ag5975    1.0  0.53571  0.60714  0.64286  1.0000
  Ag  Ag5976    1.0  0.50000  0.57143  0.71429  1.0000
  Ag  Ag5977    1.0  0.50000  0.60714  0.75000  1.0000
  Ag  Ag5978    1.0  0.53571  0.57143  0.75000  1.0000
  Ag  Ag5979    1.0  0.53571  0.60714  0.71429  1.0000
  Ag  Ag5980    1.0  0.50000  0.57143  0.78571  1.0000
  Ag  Ag5981    1.0  0.50000  0.60714  0.82143  1.0000
  Ag  Ag5982    1.0  0.53571  0.57143  0.82143  1.0000
  Ag  Ag5983    1.0  0.53571  0.60714  0.78571  1.0000
  Ag  Ag5984    1.0  0.50000  0.57143  0.85714  1.0000
  Ag  Ag5985    1.0  0.50000  0.60714  0.89286  1.0000
  Ag  Ag5986    1.0  0.53571  0.57143  0.89286  1.0000
  Ag  Ag5987    1.0  0.53571  0.60714  0.85714  1.0000
  Ag  Ag5988    1.0  0.50000  0.57143  0.92857  1.0000
  Ag  Ag5989    1.0  0.50000  0.60714  0.96429  1.0000
  Ag  Ag5990    1.0  0.53571  0.57143  0.96429  1.0000
  Ag  Ag5991    1.0  0.53571  0.60714  0.92857  1.0000
  Ag  Ag5992    1.0  0.50000  0.64286  0.00000  1.0000
  Ag  Ag5993    1.0  0.50000  0.67857  0.03571  1.0000
  Ag  Ag5994    1.0  0.53571  0.64286  0.03571  1.0000
  Ag  Ag5995    1.0  0.53571  0.67857  0.00000  1.0000
  Ag  Ag5996    1.0  0.50000  0.64286  0.07143  1.0000
  Ag  Ag5997    1.0  0.50000  0.67857  0.10714  1.0000
  Ag  Ag5998    1.0  0.53571  0.64286  0.10714  1.0000
  Ag  Ag5999    1.0  0.53571  0.67857  0.07143  1.0000
  Ag  Ag6000    1.0  0.50000  0.64286  0.14286  1.0000
  Ag  Ag6001    1.0  0.50000  0.67857  0.17857  1.0000
  Ag  Ag6002    1.0  0.53571  0.64286  0.17857  1.0000
  Ag  Ag6003    1.0  0.53571  0.67857  0.14286  1.0000
  Ag  Ag6004    1.0  0.50000  0.64286  0.21429  1.0000
  Ag  Ag6005    1.0  0.50000  0.67857  0.25000  1.0000
  Ag  Ag6006    1.0  0.53571  0.64286  0.25000  1.0000
  Ag  Ag6007    1.0  0.53571  0.67857  0.21429  1.0000
  Ag  Ag6008    1.0  0.50000  0.64286  0.28571  1.0000
  Ag  Ag6009    1.0  0.50000  0.67857  0.32143  1.0000
  Ag  Ag6010    1.0  0.53571  0.64286  0.32143  1.0000
  Ag  Ag6011    1.0  0.53571  0.67857  0.28571  1.0000
  Ag  Ag6012    1.0  0.50000  0.64286  0.35714  1.0000
  Ag  Ag6013    1.0  0.50000  0.67857  0.39286  1.0000
  Ag  Ag6014    1.0  0.53571  0.64286  0.39286  1.0000
  Ag  Ag6015    1.0  0.53571  0.67857  0.35714  1.0000
  Ag  Ag6016    1.0  0.50000  0.64286  0.42857  1.0000
  Ag  Ag6017    1.0  0.50000  0.67857  0.46429  1.0000
  Ag  Ag6018    1.0  0.53571  0.64286  0.46429  1.0000
  Ag  Ag6019    1.0  0.53571  0.67857  0.42857  1.0000
  Ag  Ag6020    1.0  0.50000  0.64286  0.50000  1.0000
  Ag  Ag6021    1.0  0.50000  0.67857  0.53571  1.0000
  Ag  Ag6022    1.0  0.53571  0.64286  0.53571  1.0000
  Ag  Ag6023    1.0  0.53571  0.67857  0.50000  1.0000
  Ag  Ag6024    1.0  0.50000  0.64286  0.57143  1.0000
  Ag  Ag6025    1.0  0.50000  0.67857  0.60714  1.0000
  Ag  Ag6026    1.0  0.53571  0.64286  0.60714  1.0000
  Ag  Ag6027    1.0  0.53571  0.67857  0.57143  1.0000
  Ag  Ag6028    1.0  0.50000  0.64286  0.64286  1.0000
  Ag  Ag6029    1.0  0.50000  0.67857  0.67857  1.0000
  Ag  Ag6030    1.0  0.53571  0.64286  0.67857  1.0000
  Ag  Ag6031    1.0  0.53571  0.67857  0.64286  1.0000
  Ag  Ag6032    1.0  0.50000  0.64286  0.71429  1.0000
  Ag  Ag6033    1.0  0.50000  0.67857  0.75000  1.0000
  Ag  Ag6034    1.0  0.53571  0.64286  0.75000  1.0000
  Ag  Ag6035    1.0  0.53571  0.67857  0.71429  1.0000
  Ag  Ag6036    1.0  0.50000  0.64286  0.78571  1.0000
  Ag  Ag6037    1.0  0.50000  0.67857  0.82143  1.0000
  Ag  Ag6038    1.0  0.53571  0.64286  0.82143  1.0000
  Ag  Ag6039    1.0  0.53571  0.67857  0.78571  1.0000
  Ag  Ag6040    1.0  0.50000  0.64286  0.85714  1.0000
  Ag  Ag6041    1.0  0.50000  0.67857  0.89286  1.0000
  Ag  Ag6042    1.0  0.53571  0.64286  0.89286  1.0000
  Ag  Ag6043    1.0  0.53571  0.67857  0.85714  1.0000
  Ag  Ag6044    1.0  0.50000  0.64286  0.92857  1.0000
  Ag  Ag6045    1.0  0.50000  0.67857  0.96429  1.0000
  Ag  Ag6046    1.0  0.53571  0.64286  0.96429  1.0000
  Ag  Ag6047    1.0  0.53571  0.67857  0.92857  1.0000
  Ag  Ag6048    1.0  0.50000  0.71429  0.00000  1.0000
  Ag  Ag6049    1.0  0.50000  0.75000  0.03571  1.0000
  Ag  Ag6050    1.0  0.53571  0.71429  0.03571  1.0000
  Ag  Ag6051    1.0  0.53571  0.75000  0.00000  1.0000
  Ag  Ag6052    1.0  0.50000  0.71429  0.07143  1.0000
  Ag  Ag6053    1.0  0.50000  0.75000  0.10714  1.0000
  Ag  Ag6054    1.0  0.53571  0.71429  0.10714  1.0000
  Ag  Ag6055    1.0  0.53571  0.75000  0.07143  1.0000
  Ag  Ag6056    1.0  0.50000  0.71429  0.14286  1.0000
  Ag  Ag6057    1.0  0.50000  0.75000  0.17857  1.0000
  Ag  Ag6058    1.0  0.53571  0.71429  0.17857  1.0000
  Ag  Ag6059    1.0  0.53571  0.75000  0.14286  1.0000
  Ag  Ag6060    1.0  0.50000  0.71429  0.21429  1.0000
  Ag  Ag6061    1.0  0.50000  0.75000  0.25000  1.0000
  Ag  Ag6062    1.0  0.53571  0.71429  0.25000  1.0000
  Ag  Ag6063    1.0  0.53571  0.75000  0.21429  1.0000
  Ag  Ag6064    1.0  0.50000  0.71429  0.28571  1.0000
  Ag  Ag6065    1.0  0.50000  0.75000  0.32143  1.0000
  Ag  Ag6066    1.0  0.53571  0.71429  0.32143  1.0000
  Ag  Ag6067    1.0  0.53571  0.75000  0.28571  1.0000
  Ag  Ag6068    1.0  0.50000  0.71429  0.35714  1.0000
  Ag  Ag6069    1.0  0.50000  0.75000  0.39286  1.0000
  Ag  Ag6070    1.0  0.53571  0.71429  0.39286  1.0000
  Ag  Ag6071    1.0  0.53571  0.75000  0.35714  1.0000
  Ag  Ag6072    1.0  0.50000  0.71429  0.42857  1.0000
  Ag  Ag6073    1.0  0.50000  0.75000  0.46429  1.0000
  Ag  Ag6074    1.0  0.53571  0.71429  0.46429  1.0000
  Ag  Ag6075    1.0  0.53571  0.75000  0.42857  1.0000
  Ag  Ag6076    1.0  0.50000  0.71429  0.50000  1.0000
  Ag  Ag6077    1.0  0.50000  0.75000  0.53571  1.0000
  Ag  Ag6078    1.0  0.53571  0.71429  0.53571  1.0000
  Ag  Ag6079    1.0  0.53571  0.75000  0.50000  1.0000
  Ag  Ag6080    1.0  0.50000  0.71429  0.57143  1.0000
  Ag  Ag6081    1.0  0.50000  0.75000  0.60714  1.0000
  Ag  Ag6082    1.0  0.53571  0.71429  0.60714  1.0000
  Ag  Ag6083    1.0  0.53571  0.75000  0.57143  1.0000
  Ag  Ag6084    1.0  0.50000  0.71429  0.64286  1.0000
  Ag  Ag6085    1.0  0.50000  0.75000  0.67857  1.0000
  Ag  Ag6086    1.0  0.53571  0.71429  0.67857  1.0000
  Ag  Ag6087    1.0  0.53571  0.75000  0.64286  1.0000
  Ag  Ag6088    1.0  0.50000  0.71429  0.71429  1.0000
  Ag  Ag6089    1.0  0.50000  0.75000  0.75000  1.0000
  Ag  Ag6090    1.0  0.53571  0.71429  0.75000  1.0000
  Ag  Ag6091    1.0  0.53571  0.75000  0.71429  1.0000
  Ag  Ag6092    1.0  0.50000  0.71429  0.78571  1.0000
  Ag  Ag6093    1.0  0.50000  0.75000  0.82143  1.0000
  Ag  Ag6094    1.0  0.53571  0.71429  0.82143  1.0000
  Ag  Ag6095    1.0  0.53571  0.75000  0.78571  1.0000
  Ag  Ag6096    1.0  0.50000  0.71429  0.85714  1.0000
  Ag  Ag6097    1.0  0.50000  0.75000  0.89286  1.0000
  Ag  Ag6098    1.0  0.53571  0.71429  0.89286  1.0000
  Ag  Ag6099    1.0  0.53571  0.75000  0.85714  1.0000
  Ag  Ag6100    1.0  0.50000  0.71429  0.92857  1.0000
  Ag  Ag6101    1.0  0.50000  0.75000  0.96429  1.0000
  Ag  Ag6102    1.0  0.53571  0.71429  0.96429  1.0000
  Ag  Ag6103    1.0  0.53571  0.75000  0.92857  1.0000
  Ag  Ag6104    1.0  0.50000  0.78571  0.00000  1.0000
  Ag  Ag6105    1.0  0.50000  0.82143  0.03571  1.0000
  Ag  Ag6106    1.0  0.53571  0.78571  0.03571  1.0000
  Ag  Ag6107    1.0  0.53571  0.82143  0.00000  1.0000
  Ag  Ag6108    1.0  0.50000  0.78571  0.07143  1.0000
  Ag  Ag6109    1.0  0.50000  0.82143  0.10714  1.0000
  Ag  Ag6110    1.0  0.53571  0.78571  0.10714  1.0000
  Ag  Ag6111    1.0  0.53571  0.82143  0.07143  1.0000
  Ag  Ag6112    1.0  0.50000  0.78571  0.14286  1.0000
  Ag  Ag6113    1.0  0.50000  0.82143  0.17857  1.0000
  Ag  Ag6114    1.0  0.53571  0.78571  0.17857  1.0000
  Ag  Ag6115    1.0  0.53571  0.82143  0.14286  1.0000
  Ag  Ag6116    1.0  0.50000  0.78571  0.21429  1.0000
  Ag  Ag6117    1.0  0.50000  0.82143  0.25000  1.0000
  Ag  Ag6118    1.0  0.53571  0.78571  0.25000  1.0000
  Ag  Ag6119    1.0  0.53571  0.82143  0.21429  1.0000
  Ag  Ag6120    1.0  0.50000  0.78571  0.28571  1.0000
  Ag  Ag6121    1.0  0.50000  0.82143  0.32143  1.0000
  Ag  Ag6122    1.0  0.53571  0.78571  0.32143  1.0000
  Ag  Ag6123    1.0  0.53571  0.82143  0.28571  1.0000
  Ag  Ag6124    1.0  0.50000  0.78571  0.35714  1.0000
  Ag  Ag6125    1.0  0.50000  0.82143  0.39286  1.0000
  Ag  Ag6126    1.0  0.53571  0.78571  0.39286  1.0000
  Ag  Ag6127    1.0  0.53571  0.82143  0.35714  1.0000
  Ag  Ag6128    1.0  0.50000  0.78571  0.42857  1.0000
  Ag  Ag6129    1.0  0.50000  0.82143  0.46429  1.0000
  Ag  Ag6130    1.0  0.53571  0.78571  0.46429  1.0000
  Ag  Ag6131    1.0  0.53571  0.82143  0.42857  1.0000
  Ag  Ag6132    1.0  0.50000  0.78571  0.50000  1.0000
  Ag  Ag6133    1.0  0.50000  0.82143  0.53571  1.0000
  Ag  Ag6134    1.0  0.53571  0.78571  0.53571  1.0000
  Ag  Ag6135    1.0  0.53571  0.82143  0.50000  1.0000
  Ag  Ag6136    1.0  0.50000  0.78571  0.57143  1.0000
  Ag  Ag6137    1.0  0.50000  0.82143  0.60714  1.0000
  Ag  Ag6138    1.0  0.53571  0.78571  0.60714  1.0000
  Ag  Ag6139    1.0  0.53571  0.82143  0.57143  1.0000
  Ag  Ag6140    1.0  0.50000  0.78571  0.64286  1.0000
  Ag  Ag6141    1.0  0.50000  0.82143  0.67857  1.0000
  Ag  Ag6142    1.0  0.53571  0.78571  0.67857  1.0000
  Ag  Ag6143    1.0  0.53571  0.82143  0.64286  1.0000
  Ag  Ag6144    1.0  0.50000  0.78571  0.71429  1.0000
  Ag  Ag6145    1.0  0.50000  0.82143  0.75000  1.0000
  Ag  Ag6146    1.0  0.53571  0.78571  0.75000  1.0000
  Ag  Ag6147    1.0  0.53571  0.82143  0.71429  1.0000
  Ag  Ag6148    1.0  0.50000  0.78571  0.78571  1.0000
  Ag  Ag6149    1.0  0.50000  0.82143  0.82143  1.0000
  Ag  Ag6150    1.0  0.53571  0.78571  0.82143  1.0000
  Ag  Ag6151    1.0  0.53571  0.82143  0.78571  1.0000
  Ag  Ag6152    1.0  0.50000  0.78571  0.85714  1.0000
  Ag  Ag6153    1.0  0.50000  0.82143  0.89286  1.0000
  Ag  Ag6154    1.0  0.53571  0.78571  0.89286  1.0000
  Ag  Ag6155    1.0  0.53571  0.82143  0.85714  1.0000
  Ag  Ag6156    1.0  0.50000  0.78571  0.92857  1.0000
  Ag  Ag6157    1.0  0.50000  0.82143  0.96429  1.0000
  Ag  Ag6158    1.0  0.53571  0.78571  0.96429  1.0000
  Ag  Ag6159    1.0  0.53571  0.82143  0.92857  1.0000
  Ag  Ag6160    1.0  0.50000  0.85714  0.00000  1.0000
  Ag  Ag6161    1.0  0.50000  0.89286  0.03571  1.0000
  Ag  Ag6162    1.0  0.53571  0.85714  0.03571  1.0000
  Ag  Ag6163    1.0  0.53571  0.89286  0.00000  1.0000
  Ag  Ag6164    1.0  0.50000  0.85714  0.07143  1.0000
  Ag  Ag6165    1.0  0.50000  0.89286  0.10714  1.0000
  Ag  Ag6166    1.0  0.53571  0.85714  0.10714  1.0000
  Ag  Ag6167    1.0  0.53571  0.89286  0.07143  1.0000
  Ag  Ag6168    1.0  0.50000  0.85714  0.14286  1.0000
  Ag  Ag6169    1.0  0.50000  0.89286  0.17857  1.0000
  Ag  Ag6170    1.0  0.53571  0.85714  0.17857  1.0000
  Ag  Ag6171    1.0  0.53571  0.89286  0.14286  1.0000
  Ag  Ag6172    1.0  0.50000  0.85714  0.21429  1.0000
  Ag  Ag6173    1.0  0.50000  0.89286  0.25000  1.0000
  Ag  Ag6174    1.0  0.53571  0.85714  0.25000  1.0000
  Ag  Ag6175    1.0  0.53571  0.89286  0.21429  1.0000
  Ag  Ag6176    1.0  0.50000  0.85714  0.28571  1.0000
  Ag  Ag6177    1.0  0.50000  0.89286  0.32143  1.0000
  Ag  Ag6178    1.0  0.53571  0.85714  0.32143  1.0000
  Ag  Ag6179    1.0  0.53571  0.89286  0.28571  1.0000
  Ag  Ag6180    1.0  0.50000  0.85714  0.35714  1.0000
  Ag  Ag6181    1.0  0.50000  0.89286  0.39286  1.0000
  Ag  Ag6182    1.0  0.53571  0.85714  0.39286  1.0000
  Ag  Ag6183    1.0  0.53571  0.89286  0.35714  1.0000
  Ag  Ag6184    1.0  0.50000  0.85714  0.42857  1.0000
  Ag  Ag6185    1.0  0.50000  0.89286  0.46429  1.0000
  Ag  Ag6186    1.0  0.53571  0.85714  0.46429  1.0000
  Ag  Ag6187    1.0  0.53571  0.89286  0.42857  1.0000
  Ag  Ag6188    1.0  0.50000  0.85714  0.50000  1.0000
  Ag  Ag6189    1.0  0.50000  0.89286  0.53571  1.0000
  Ag  Ag6190    1.0  0.53571  0.85714  0.53571  1.0000
  Ag  Ag6191    1.0  0.53571  0.89286  0.50000  1.0000
  Ag  Ag6192    1.0  0.50000  0.85714  0.57143  1.0000
  Ag  Ag6193    1.0  0.50000  0.89286  0.60714  1.0000
  Ag  Ag6194    1.0  0.53571  0.85714  0.60714  1.0000
  Ag  Ag6195    1.0  0.53571  0.89286  0.57143  1.0000
  Ag  Ag6196    1.0  0.50000  0.85714  0.64286  1.0000
  Ag  Ag6197    1.0  0.50000  0.89286  0.67857  1.0000
  Ag  Ag6198    1.0  0.53571  0.85714  0.67857  1.0000
  Ag  Ag6199    1.0  0.53571  0.89286  0.64286  1.0000
  Ag  Ag6200    1.0  0.50000  0.85714  0.71429  1.0000
  Ag  Ag6201    1.0  0.50000  0.89286  0.75000  1.0000
  Ag  Ag6202    1.0  0.53571  0.85714  0.75000  1.0000
  Ag  Ag6203    1.0  0.53571  0.89286  0.71429  1.0000
  Ag  Ag6204    1.0  0.50000  0.85714  0.78571  1.0000
  Ag  Ag6205    1.0  0.50000  0.89286  0.82143  1.0000
  Ag  Ag6206    1.0  0.53571  0.85714  0.82143  1.0000
  Ag  Ag6207    1.0  0.53571  0.89286  0.78571  1.0000
  Ag  Ag6208    1.0  0.50000  0.85714  0.85714  1.0000
  Ag  Ag6209    1.0  0.50000  0.89286  0.89286  1.0000
  Ag  Ag6210    1.0  0.53571  0.85714  0.89286  1.0000
  Ag  Ag6211    1.0  0.53571  0.89286  0.85714  1.0000
  Ag  Ag6212    1.0  0.50000  0.85714  0.92857  1.0000
  Ag  Ag6213    1.0  0.50000  0.89286  0.96429  1.0000
  Ag  Ag6214    1.0  0.53571  0.85714  0.96429  1.0000
  Ag  Ag6215    1.0  0.53571  0.89286  0.92857  1.0000
  Ag  Ag6216    1.0  0.50000  0.92857  0.00000  1.0000
  Ag  Ag6217    1.0  0.50000  0.96429  0.03571  1.0000
  Ag  Ag6218    1.0  0.53571  0.92857  0.03571  1.0000
  Ag  Ag6219    1.0  0.53571  0.96429  0.00000  1.0000
  Ag  Ag6220    1.0  0.50000  0.92857  0.07143  1.0000
  Ag  Ag6221    1.0  0.50000  0.96429  0.10714  1.0000
  Ag  Ag6222    1.0  0.53571  0.92857  0.10714  1.0000
  Ag  Ag6223    1.0  0.53571  0.96429  0.07143  1.0000
  Ag  Ag6224    1.0  0.50000  0.92857  0.14286  1.0000
  Ag  Ag6225    1.0  0.50000  0.96429  0.17857  1.0000
  Ag  Ag6226    1.0  0.53571  0.92857  0.17857  1.0000
  Ag  Ag6227    1.0  0.53571  0.96429  0.14286  1.0000
  Ag  Ag6228    1.0  0.50000  0.92857  0.21429  1.0000
  Ag  Ag6229    1.0  0.50000  0.96429  0.25000  1.0000
  Ag  Ag6230    1.0  0.53571  0.92857  0.25000  1.0000
  Ag  Ag6231    1.0  0.53571  0.96429  0.21429  1.0000
  Ag  Ag6232    1.0  0.50000  0.92857  0.28571  1.0000
  Ag  Ag6233    1.0  0.50000  0.96429  0.32143  1.0000
  Ag  Ag6234    1.0  0.53571  0.92857  0.32143  1.0000
  Ag  Ag6235    1.0  0.53571  0.96429  0.28571  1.0000
  Ag  Ag6236    1.0  0.50000  0.92857  0.35714  1.0000
  Ag  Ag6237    1.0  0.50000  0.96429  0.39286  1.0000
  Ag  Ag6238    1.0  0.53571  0.92857  0.39286  1.0000
  Ag  Ag6239    1.0  0.53571  0.96429  0.35714  1.0000
  Ag  Ag6240    1.0  0.50000  0.92857  0.42857  1.0000
  Ag  Ag6241    1.0  0.50000  0.96429  0.46429  1.0000
  Ag  Ag6242    1.0  0.53571  0.92857  0.46429  1.0000
  Ag  Ag6243    1.0  0.53571  0.96429  0.42857  1.0000
  Ag  Ag6244    1.0  0.50000  0.92857  0.50000  1.0000
  Ag  Ag6245    1.0  0.50000  0.96429  0.53571  1.0000
  Ag  Ag6246    1.0  0.53571  0.92857  0.53571  1.0000
  Ag  Ag6247    1.0  0.53571  0.96429  0.50000  1.0000
  Ag  Ag6248    1.0  0.50000  0.92857  0.57143  1.0000
  Ag  Ag6249    1.0  0.50000  0.96429  0.60714  1.0000
  Ag  Ag6250    1.0  0.53571  0.92857  0.60714  1.0000
  Ag  Ag6251    1.0  0.53571  0.96429  0.57143  1.0000
  Ag  Ag6252    1.0  0.50000  0.92857  0.64286  1.0000
  Ag  Ag6253    1.0  0.50000  0.96429  0.67857  1.0000
  Ag  Ag6254    1.0  0.53571  0.92857  0.67857  1.0000
  Ag  Ag6255    1.0  0.53571  0.96429  0.64286  1.0000
  Ag  Ag6256    1.0  0.50000  0.92857  0.71429  1.0000
  Ag  Ag6257    1.0  0.50000  0.96429  0.75000  1.0000
  Ag  Ag6258    1.0  0.53571  0.92857  0.75000  1.0000
  Ag  Ag6259    1.0  0.53571  0.96429  0.71429  1.0000
  Ag  Ag6260    1.0  0.50000  0.92857  0.78571  1.0000
  Ag  Ag6261    1.0  0.50000  0.96429  0.82143  1.0000
  Ag  Ag6262    1.0  0.53571  0.92857  0.82143  1.0000
  Ag  Ag6263    1.0  0.53571  0.96429  0.78571  1.0000
  Ag  Ag6264    1.0  0.50000  0.92857  0.85714  1.0000
  Ag  Ag6265    1.0  0.50000  0.96429  0.89286  1.0000
  Ag  Ag6266    1.0  0.53571  0.92857  0.89286  1.0000
  Ag  Ag6267    1.0  0.53571  0.96429  0.85714  1.0000
  Ag  Ag6268    1.0  0.50000  0.92857  0.92857  1.0000
  Ag  Ag6269    1.0  0.50000  0.96429  0.96429  1.0000
  Ag  Ag6270    1.0  0.53571  0.92857  0.96429  1.0000
  Ag  Ag6271    1.0  0.53571  0.96429  0.92857  1.0000
  Ag  Ag6272    1.0  0.57143  0.00000  0.00000  1.0000
  Ag  Ag6273    1.0  0.57143  0.03571  0.03571  1.0000
  Ag  Ag6274    1.0  0.60714  0.00000  0.03571  1.0000
  Ag  Ag6275    1.0  0.60714  0.03571  0.00000  1.0000
  Ag  Ag6276    1.0  0.57143  0.00000  0.07143  1.0000
  Ag  Ag6277    1.0  0.57143  0.03571  0.10714  1.0000
  Ag  Ag6278    1.0  0.60714  0.00000  0.10714  1.0000
  Ag  Ag6279    1.0  0.60714  0.03571  0.07143  1.0000
  Ag  Ag6280    1.0  0.57143  0.00000  0.14286  1.0000
  Ag  Ag6281    1.0  0.57143  0.03571  0.17857  1.0000
  Ag  Ag6282    1.0  0.60714  0.00000  0.17857  1.0000
  Ag  Ag6283    1.0  0.60714  0.03571  0.14286  1.0000
  Ag  Ag6284    1.0  0.57143  0.00000  0.21429  1.0000
  Ag  Ag6285    1.0  0.57143  0.03571  0.25000  1.0000
  Ag  Ag6286    1.0  0.60714  0.00000  0.25000  1.0000
  Ag  Ag6287    1.0  0.60714  0.03571  0.21429  1.0000
  Ag  Ag6288    1.0  0.57143  0.00000  0.28571  1.0000
  Ag  Ag6289    1.0  0.57143  0.03571  0.32143  1.0000
  Ag  Ag6290    1.0  0.60714  0.00000  0.32143  1.0000
  Ag  Ag6291    1.0  0.60714  0.03571  0.28571  1.0000
  Ag  Ag6292    1.0  0.57143  0.00000  0.35714  1.0000
  Ag  Ag6293    1.0  0.57143  0.03571  0.39286  1.0000
  Ag  Ag6294    1.0  0.60714  0.00000  0.39286  1.0000
  Ag  Ag6295    1.0  0.60714  0.03571  0.35714  1.0000
  Ag  Ag6296    1.0  0.57143  0.00000  0.42857  1.0000
  Ag  Ag6297    1.0  0.57143  0.03571  0.46429  1.0000
  Ag  Ag6298    1.0  0.60714  0.00000  0.46429  1.0000
  Ag  Ag6299    1.0  0.60714  0.03571  0.42857  1.0000
  Ag  Ag6300    1.0  0.57143  0.00000  0.50000  1.0000
  Ag  Ag6301    1.0  0.57143  0.03571  0.53571  1.0000
  Ag  Ag6302    1.0  0.60714  0.00000  0.53571  1.0000
  Ag  Ag6303    1.0  0.60714  0.03571  0.50000  1.0000
  Ag  Ag6304    1.0  0.57143  0.00000  0.57143  1.0000
  Ag  Ag6305    1.0  0.57143  0.03571  0.60714  1.0000
  Ag  Ag6306    1.0  0.60714  0.00000  0.60714  1.0000
  Ag  Ag6307    1.0  0.60714  0.03571  0.57143  1.0000
  Ag  Ag6308    1.0  0.57143  0.00000  0.64286  1.0000
  Ag  Ag6309    1.0  0.57143  0.03571  0.67857  1.0000
  Ag  Ag6310    1.0  0.60714  0.00000  0.67857  1.0000
  Ag  Ag6311    1.0  0.60714  0.03571  0.64286  1.0000
  Ag  Ag6312    1.0  0.57143  0.00000  0.71429  1.0000
  Ag  Ag6313    1.0  0.57143  0.03571  0.75000  1.0000
  Ag  Ag6314    1.0  0.60714  0.00000  0.75000  1.0000
  Ag  Ag6315    1.0  0.60714  0.03571  0.71429  1.0000
  Ag  Ag6316    1.0  0.57143  0.00000  0.78571  1.0000
  Ag  Ag6317    1.0  0.57143  0.03571  0.82143  1.0000
  Ag  Ag6318    1.0  0.60714  0.00000  0.82143  1.0000
  Ag  Ag6319    1.0  0.60714  0.03571  0.78571  1.0000
  Ag  Ag6320    1.0  0.57143  0.00000  0.85714  1.0000
  Ag  Ag6321    1.0  0.57143  0.03571  0.89286  1.0000
  Ag  Ag6322    1.0  0.60714  0.00000  0.89286  1.0000
  Ag  Ag6323    1.0  0.60714  0.03571  0.85714  1.0000
  Ag  Ag6324    1.0  0.57143  0.00000  0.92857  1.0000
  Ag  Ag6325    1.0  0.57143  0.03571  0.96429  1.0000
  Ag  Ag6326    1.0  0.60714  0.00000  0.96429  1.0000
  Ag  Ag6327    1.0  0.60714  0.03571  0.92857  1.0000
  Ag  Ag6328    1.0  0.57143  0.07143  0.00000  1.0000
  Ag  Ag6329    1.0  0.57143  0.10714  0.03571  1.0000
  Ag  Ag6330    1.0  0.60714  0.07143  0.03571  1.0000
  Ag  Ag6331    1.0  0.60714  0.10714  0.00000  1.0000
  Ag  Ag6332    1.0  0.57143  0.07143  0.07143  1.0000
  Ag  Ag6333    1.0  0.57143  0.10714  0.10714  1.0000
  Ag  Ag6334    1.0  0.60714  0.07143  0.10714  1.0000
  Ag  Ag6335    1.0  0.60714  0.10714  0.07143  1.0000
  Ag  Ag6336    1.0  0.57143  0.07143  0.14286  1.0000
  Ag  Ag6337    1.0  0.57143  0.10714  0.17857  1.0000
  Ag  Ag6338    1.0  0.60714  0.07143  0.17857  1.0000
  Ag  Ag6339    1.0  0.60714  0.10714  0.14286  1.0000
  Ag  Ag6340    1.0  0.57143  0.07143  0.21429  1.0000
  Ag  Ag6341    1.0  0.57143  0.10714  0.25000  1.0000
  Ag  Ag6342    1.0  0.60714  0.07143  0.25000  1.0000
  Ag  Ag6343    1.0  0.60714  0.10714  0.21429  1.0000
  Ag  Ag6344    1.0  0.57143  0.07143  0.28571  1.0000
  Ag  Ag6345    1.0  0.57143  0.10714  0.32143  1.0000
  Ag  Ag6346    1.0  0.60714  0.07143  0.32143  1.0000
  Ag  Ag6347    1.0  0.60714  0.10714  0.28571  1.0000
  Ag  Ag6348    1.0  0.57143  0.07143  0.35714  1.0000
  Ag  Ag6349    1.0  0.57143  0.10714  0.39286  1.0000
  Ag  Ag6350    1.0  0.60714  0.07143  0.39286  1.0000
  Ag  Ag6351    1.0  0.60714  0.10714  0.35714  1.0000
  Ag  Ag6352    1.0  0.57143  0.07143  0.42857  1.0000
  Ag  Ag6353    1.0  0.57143  0.10714  0.46429  1.0000
  Ag  Ag6354    1.0  0.60714  0.07143  0.46429  1.0000
  Ag  Ag6355    1.0  0.60714  0.10714  0.42857  1.0000
  Ag  Ag6356    1.0  0.57143  0.07143  0.50000  1.0000
  Ag  Ag6357    1.0  0.57143  0.10714  0.53571  1.0000
  Ag  Ag6358    1.0  0.60714  0.07143  0.53571  1.0000
  Ag  Ag6359    1.0  0.60714  0.10714  0.50000  1.0000
  Ag  Ag6360    1.0  0.57143  0.07143  0.57143  1.0000
  Ag  Ag6361    1.0  0.57143  0.10714  0.60714  1.0000
  Ag  Ag6362    1.0  0.60714  0.07143  0.60714  1.0000
  Ag  Ag6363    1.0  0.60714  0.10714  0.57143  1.0000
  Ag  Ag6364    1.0  0.57143  0.07143  0.64286  1.0000
  Ag  Ag6365    1.0  0.57143  0.10714  0.67857  1.0000
  Ag  Ag6366    1.0  0.60714  0.07143  0.67857  1.0000
  Ag  Ag6367    1.0  0.60714  0.10714  0.64286  1.0000
  Ag  Ag6368    1.0  0.57143  0.07143  0.71429  1.0000
  Ag  Ag6369    1.0  0.57143  0.10714  0.75000  1.0000
  Ag  Ag6370    1.0  0.60714  0.07143  0.75000  1.0000
  Ag  Ag6371    1.0  0.60714  0.10714  0.71429  1.0000
  Ag  Ag6372    1.0  0.57143  0.07143  0.78571  1.0000
  Ag  Ag6373    1.0  0.57143  0.10714  0.82143  1.0000
  Ag  Ag6374    1.0  0.60714  0.07143  0.82143  1.0000
  Ag  Ag6375    1.0  0.60714  0.10714  0.78571  1.0000
  Ag  Ag6376    1.0  0.57143  0.07143  0.85714  1.0000
  Ag  Ag6377    1.0  0.57143  0.10714  0.89286  1.0000
  Ag  Ag6378    1.0  0.60714  0.07143  0.89286  1.0000
  Ag  Ag6379    1.0  0.60714  0.10714  0.85714  1.0000
  Ag  Ag6380    1.0  0.57143  0.07143  0.92857  1.0000
  Ag  Ag6381    1.0  0.57143  0.10714  0.96429  1.0000
  Ag  Ag6382    1.0  0.60714  0.07143  0.96429  1.0000
  Ag  Ag6383    1.0  0.60714  0.10714  0.92857  1.0000
  Ag  Ag6384    1.0  0.57143  0.14286  0.00000  1.0000
  Ag  Ag6385    1.0  0.57143  0.17857  0.03571  1.0000
  Ag  Ag6386    1.0  0.60714  0.14286  0.03571  1.0000
  Ag  Ag6387    1.0  0.60714  0.17857  0.00000  1.0000
  Ag  Ag6388    1.0  0.57143  0.14286  0.07143  1.0000
  Ag  Ag6389    1.0  0.57143  0.17857  0.10714  1.0000
  Ag  Ag6390    1.0  0.60714  0.14286  0.10714  1.0000
  Ag  Ag6391    1.0  0.60714  0.17857  0.07143  1.0000
  Ag  Ag6392    1.0  0.57143  0.14286  0.14286  1.0000
  Ag  Ag6393    1.0  0.57143  0.17857  0.17857  1.0000
  Ag  Ag6394    1.0  0.60714  0.14286  0.17857  1.0000
  Ag  Ag6395    1.0  0.60714  0.17857  0.14286  1.0000
  Ag  Ag6396    1.0  0.57143  0.14286  0.21429  1.0000
  Ag  Ag6397    1.0  0.57143  0.17857  0.25000  1.0000
  Ag  Ag6398    1.0  0.60714  0.14286  0.25000  1.0000
  Ag  Ag6399    1.0  0.60714  0.17857  0.21429  1.0000
  Ag  Ag6400    1.0  0.57143  0.14286  0.28571  1.0000
  Ag  Ag6401    1.0  0.57143  0.17857  0.32143  1.0000
  Ag  Ag6402    1.0  0.60714  0.14286  0.32143  1.0000
  Ag  Ag6403    1.0  0.60714  0.17857  0.28571  1.0000
  Ag  Ag6404    1.0  0.57143  0.14286  0.35714  1.0000
  Ag  Ag6405    1.0  0.57143  0.17857  0.39286  1.0000
  Ag  Ag6406    1.0  0.60714  0.14286  0.39286  1.0000
  Ag  Ag6407    1.0  0.60714  0.17857  0.35714  1.0000
  Ag  Ag6408    1.0  0.57143  0.14286  0.42857  1.0000
  Ag  Ag6409    1.0  0.57143  0.17857  0.46429  1.0000
  Ag  Ag6410    1.0  0.60714  0.14286  0.46429  1.0000
  Ag  Ag6411    1.0  0.60714  0.17857  0.42857  1.0000
  Ag  Ag6412    1.0  0.57143  0.14286  0.50000  1.0000
  Ag  Ag6413    1.0  0.57143  0.17857  0.53571  1.0000
  Ag  Ag6414    1.0  0.60714  0.14286  0.53571  1.0000
  Ag  Ag6415    1.0  0.60714  0.17857  0.50000  1.0000
  Ag  Ag6416    1.0  0.57143  0.14286  0.57143  1.0000
  Ag  Ag6417    1.0  0.57143  0.17857  0.60714  1.0000
  Ag  Ag6418    1.0  0.60714  0.14286  0.60714  1.0000
  Ag  Ag6419    1.0  0.60714  0.17857  0.57143  1.0000
  Ag  Ag6420    1.0  0.57143  0.14286  0.64286  1.0000
  Ag  Ag6421    1.0  0.57143  0.17857  0.67857  1.0000
  Ag  Ag6422    1.0  0.60714  0.14286  0.67857  1.0000
  Ag  Ag6423    1.0  0.60714  0.17857  0.64286  1.0000
  Ag  Ag6424    1.0  0.57143  0.14286  0.71429  1.0000
  Ag  Ag6425    1.0  0.57143  0.17857  0.75000  1.0000
  Ag  Ag6426    1.0  0.60714  0.14286  0.75000  1.0000
  Ag  Ag6427    1.0  0.60714  0.17857  0.71429  1.0000
  Ag  Ag6428    1.0  0.57143  0.14286  0.78571  1.0000
  Ag  Ag6429    1.0  0.57143  0.17857  0.82143  1.0000
  Ag  Ag6430    1.0  0.60714  0.14286  0.82143  1.0000
  Ag  Ag6431    1.0  0.60714  0.17857  0.78571  1.0000
  Ag  Ag6432    1.0  0.57143  0.14286  0.85714  1.0000
  Ag  Ag6433    1.0  0.57143  0.17857  0.89286  1.0000
  Ag  Ag6434    1.0  0.60714  0.14286  0.89286  1.0000
  Ag  Ag6435    1.0  0.60714  0.17857  0.85714  1.0000
  Ag  Ag6436    1.0  0.57143  0.14286  0.92857  1.0000
  Ag  Ag6437    1.0  0.57143  0.17857  0.96429  1.0000
  Ag  Ag6438    1.0  0.60714  0.14286  0.96429  1.0000
  Ag  Ag6439    1.0  0.60714  0.17857  0.92857  1.0000
  Ag  Ag6440    1.0  0.57143  0.21429  0.00000  1.0000
  Ag  Ag6441    1.0  0.57143  0.25000  0.03571  1.0000
  Ag  Ag6442    1.0  0.60714  0.21429  0.03571  1.0000
  Ag  Ag6443    1.0  0.60714  0.25000  0.00000  1.0000
  Ag  Ag6444    1.0  0.57143  0.21429  0.07143  1.0000
  Ag  Ag6445    1.0  0.57143  0.25000  0.10714  1.0000
  Ag  Ag6446    1.0  0.60714  0.21429  0.10714  1.0000
  Ag  Ag6447    1.0  0.60714  0.25000  0.07143  1.0000
  Ag  Ag6448    1.0  0.57143  0.21429  0.14286  1.0000
  Ag  Ag6449    1.0  0.57143  0.25000  0.17857  1.0000
  Ag  Ag6450    1.0  0.60714  0.21429  0.17857  1.0000
  Ag  Ag6451    1.0  0.60714  0.25000  0.14286  1.0000
  Ag  Ag6452    1.0  0.57143  0.21429  0.21429  1.0000
  Ag  Ag6453    1.0  0.57143  0.25000  0.25000  1.0000
  Ag  Ag6454    1.0  0.60714  0.21429  0.25000  1.0000
  Ag  Ag6455    1.0  0.60714  0.25000  0.21429  1.0000
  Ag  Ag6456    1.0  0.57143  0.21429  0.28571  1.0000
  Ag  Ag6457    1.0  0.57143  0.25000  0.32143  1.0000
  Ag  Ag6458    1.0  0.60714  0.21429  0.32143  1.0000
  Ag  Ag6459    1.0  0.60714  0.25000  0.28571  1.0000
  Ag  Ag6460    1.0  0.57143  0.21429  0.35714  1.0000
  Ag  Ag6461    1.0  0.57143  0.25000  0.39286  1.0000
  Ag  Ag6462    1.0  0.60714  0.21429  0.39286  1.0000
  Ag  Ag6463    1.0  0.60714  0.25000  0.35714  1.0000
  Ag  Ag6464    1.0  0.57143  0.21429  0.42857  1.0000
  Ag  Ag6465    1.0  0.57143  0.25000  0.46429  1.0000
  Ag  Ag6466    1.0  0.60714  0.21429  0.46429  1.0000
  Ag  Ag6467    1.0  0.60714  0.25000  0.42857  1.0000
  Ag  Ag6468    1.0  0.57143  0.21429  0.50000  1.0000
  Ag  Ag6469    1.0  0.57143  0.25000  0.53571  1.0000
  Ag  Ag6470    1.0  0.60714  0.21429  0.53571  1.0000
  Ag  Ag6471    1.0  0.60714  0.25000  0.50000  1.0000
  Ag  Ag6472    1.0  0.57143  0.21429  0.57143  1.0000
  Ag  Ag6473    1.0  0.57143  0.25000  0.60714  1.0000
  Ag  Ag6474    1.0  0.60714  0.21429  0.60714  1.0000
  Ag  Ag6475    1.0  0.60714  0.25000  0.57143  1.0000
  Ag  Ag6476    1.0  0.57143  0.21429  0.64286  1.0000
  Ag  Ag6477    1.0  0.57143  0.25000  0.67857  1.0000
  Ag  Ag6478    1.0  0.60714  0.21429  0.67857  1.0000
  Ag  Ag6479    1.0  0.60714  0.25000  0.64286  1.0000
  Ag  Ag6480    1.0  0.57143  0.21429  0.71429  1.0000
  Ag  Ag6481    1.0  0.57143  0.25000  0.75000  1.0000
  Ag  Ag6482    1.0  0.60714  0.21429  0.75000  1.0000
  Ag  Ag6483    1.0  0.60714  0.25000  0.71429  1.0000
  Ag  Ag6484    1.0  0.57143  0.21429  0.78571  1.0000
  Ag  Ag6485    1.0  0.57143  0.25000  0.82143  1.0000
  Ag  Ag6486    1.0  0.60714  0.21429  0.82143  1.0000
  Ag  Ag6487    1.0  0.60714  0.25000  0.78571  1.0000
  Ag  Ag6488    1.0  0.57143  0.21429  0.85714  1.0000
  Ag  Ag6489    1.0  0.57143  0.25000  0.89286  1.0000
  Ag  Ag6490    1.0  0.60714  0.21429  0.89286  1.0000
  Ag  Ag6491    1.0  0.60714  0.25000  0.85714  1.0000
  Ag  Ag6492    1.0  0.57143  0.21429  0.92857  1.0000
  Ag  Ag6493    1.0  0.57143  0.25000  0.96429  1.0000
  Ag  Ag6494    1.0  0.60714  0.21429  0.96429  1.0000
  Ag  Ag6495    1.0  0.60714  0.25000  0.92857  1.0000
  Ag  Ag6496    1.0  0.57143  0.28571  0.00000  1.0000
  Ag  Ag6497    1.0  0.57143  0.32143  0.03571  1.0000
  Ag  Ag6498    1.0  0.60714  0.28571  0.03571  1.0000
  Ag  Ag6499    1.0  0.60714  0.32143  0.00000  1.0000
  Ag  Ag6500    1.0  0.57143  0.28571  0.07143  1.0000
  Ag  Ag6501    1.0  0.57143  0.32143  0.10714  1.0000
  Ag  Ag6502    1.0  0.60714  0.28571  0.10714  1.0000
  Ag  Ag6503    1.0  0.60714  0.32143  0.07143  1.0000
  Ag  Ag6504    1.0  0.57143  0.28571  0.14286  1.0000
  Ag  Ag6505    1.0  0.57143  0.32143  0.17857  1.0000
  Ag  Ag6506    1.0  0.60714  0.28571  0.17857  1.0000
  Ag  Ag6507    1.0  0.60714  0.32143  0.14286  1.0000
  Ag  Ag6508    1.0  0.57143  0.28571  0.21429  1.0000
  Ag  Ag6509    1.0  0.57143  0.32143  0.25000  1.0000
  Ag  Ag6510    1.0  0.60714  0.28571  0.25000  1.0000
  Ag  Ag6511    1.0  0.60714  0.32143  0.21429  1.0000
  Ag  Ag6512    1.0  0.57143  0.28571  0.28571  1.0000
  Ag  Ag6513    1.0  0.57143  0.32143  0.32143  1.0000
  Ag  Ag6514    1.0  0.60714  0.28571  0.32143  1.0000
  Ag  Ag6515    1.0  0.60714  0.32143  0.28571  1.0000
  Ag  Ag6516    1.0  0.57143  0.28571  0.35714  1.0000
  Ag  Ag6517    1.0  0.57143  0.32143  0.39286  1.0000
  Ag  Ag6518    1.0  0.60714  0.28571  0.39286  1.0000
  Ag  Ag6519    1.0  0.60714  0.32143  0.35714  1.0000
  Ag  Ag6520    1.0  0.57143  0.28571  0.42857  1.0000
  Ag  Ag6521    1.0  0.57143  0.32143  0.46429  1.0000
  Ag  Ag6522    1.0  0.60714  0.28571  0.46429  1.0000
  Ag  Ag6523    1.0  0.60714  0.32143  0.42857  1.0000
  Ag  Ag6524    1.0  0.57143  0.28571  0.50000  1.0000
  Ag  Ag6525    1.0  0.57143  0.32143  0.53571  1.0000
  Ag  Ag6526    1.0  0.60714  0.28571  0.53571  1.0000
  Ag  Ag6527    1.0  0.60714  0.32143  0.50000  1.0000
  Ag  Ag6528    1.0  0.57143  0.28571  0.57143  1.0000
  Ag  Ag6529    1.0  0.57143  0.32143  0.60714  1.0000
  Ag  Ag6530    1.0  0.60714  0.28571  0.60714  1.0000
  Ag  Ag6531    1.0  0.60714  0.32143  0.57143  1.0000
  Ag  Ag6532    1.0  0.57143  0.28571  0.64286  1.0000
  Ag  Ag6533    1.0  0.57143  0.32143  0.67857  1.0000
  Ag  Ag6534    1.0  0.60714  0.28571  0.67857  1.0000
  Ag  Ag6535    1.0  0.60714  0.32143  0.64286  1.0000
  Ag  Ag6536    1.0  0.57143  0.28571  0.71429  1.0000
  Ag  Ag6537    1.0  0.57143  0.32143  0.75000  1.0000
  Ag  Ag6538    1.0  0.60714  0.28571  0.75000  1.0000
  Ag  Ag6539    1.0  0.60714  0.32143  0.71429  1.0000
  Ag  Ag6540    1.0  0.57143  0.28571  0.78571  1.0000
  Ag  Ag6541    1.0  0.57143  0.32143  0.82143  1.0000
  Ag  Ag6542    1.0  0.60714  0.28571  0.82143  1.0000
  Ag  Ag6543    1.0  0.60714  0.32143  0.78571  1.0000
  Ag  Ag6544    1.0  0.57143  0.28571  0.85714  1.0000
  Ag  Ag6545    1.0  0.57143  0.32143  0.89286  1.0000
  Ag  Ag6546    1.0  0.60714  0.28571  0.89286  1.0000
  Ag  Ag6547    1.0  0.60714  0.32143  0.85714  1.0000
  Ag  Ag6548    1.0  0.57143  0.28571  0.92857  1.0000
  Ag  Ag6549    1.0  0.57143  0.32143  0.96429  1.0000
  Ag  Ag6550    1.0  0.60714  0.28571  0.96429  1.0000
  Ag  Ag6551    1.0  0.60714  0.32143  0.92857  1.0000
  Ag  Ag6552    1.0  0.57143  0.35714  0.00000  1.0000
  Ag  Ag6553    1.0  0.57143  0.39286  0.03571  1.0000
  Ag  Ag6554    1.0  0.60714  0.35714  0.03571  1.0000
  Ag  Ag6555    1.0  0.60714  0.39286  0.00000  1.0000
  Ag  Ag6556    1.0  0.57143  0.35714  0.07143  1.0000
  Ag  Ag6557    1.0  0.57143  0.39286  0.10714  1.0000
  Ag  Ag6558    1.0  0.60714  0.35714  0.10714  1.0000
  Ag  Ag6559    1.0  0.60714  0.39286  0.07143  1.0000
  Ag  Ag6560    1.0  0.57143  0.35714  0.14286  1.0000
  Ag  Ag6561    1.0  0.57143  0.39286  0.17857  1.0000
  Ag  Ag6562    1.0  0.60714  0.35714  0.17857  1.0000
  Ag  Ag6563    1.0  0.60714  0.39286  0.14286  1.0000
  Ag  Ag6564    1.0  0.57143  0.35714  0.21429  1.0000
  Ag  Ag6565    1.0  0.57143  0.39286  0.25000  1.0000
  Ag  Ag6566    1.0  0.60714  0.35714  0.25000  1.0000
  Ag  Ag6567    1.0  0.60714  0.39286  0.21429  1.0000
  Ag  Ag6568    1.0  0.57143  0.35714  0.28571  1.0000
  Ag  Ag6569    1.0  0.57143  0.39286  0.32143  1.0000
  Ag  Ag6570    1.0  0.60714  0.35714  0.32143  1.0000
  Ag  Ag6571    1.0  0.60714  0.39286  0.28571  1.0000
  Ag  Ag6572    1.0  0.57143  0.35714  0.35714  1.0000
  Ag  Ag6573    1.0  0.57143  0.39286  0.39286  1.0000
  Ag  Ag6574    1.0  0.60714  0.35714  0.39286  1.0000
  Ag  Ag6575    1.0  0.60714  0.39286  0.35714  1.0000
  Ag  Ag6576    1.0  0.57143  0.35714  0.42857  1.0000
  Ag  Ag6577    1.0  0.57143  0.39286  0.46429  1.0000
  Ag  Ag6578    1.0  0.60714  0.35714  0.46429  1.0000
  Ag  Ag6579    1.0  0.60714  0.39286  0.42857  1.0000
  Ag  Ag6580    1.0  0.57143  0.35714  0.50000  1.0000
  Ag  Ag6581    1.0  0.57143  0.39286  0.53571  1.0000
  Ag  Ag6582    1.0  0.60714  0.35714  0.53571  1.0000
  Ag  Ag6583    1.0  0.60714  0.39286  0.50000  1.0000
  Ag  Ag6584    1.0  0.57143  0.35714  0.57143  1.0000
  Ag  Ag6585    1.0  0.57143  0.39286  0.60714  1.0000
  Ag  Ag6586    1.0  0.60714  0.35714  0.60714  1.0000
  Ag  Ag6587    1.0  0.60714  0.39286  0.57143  1.0000
  Ag  Ag6588    1.0  0.57143  0.35714  0.64286  1.0000
  Ag  Ag6589    1.0  0.57143  0.39286  0.67857  1.0000
  Ag  Ag6590    1.0  0.60714  0.35714  0.67857  1.0000
  Ag  Ag6591    1.0  0.60714  0.39286  0.64286  1.0000
  Ag  Ag6592    1.0  0.57143  0.35714  0.71429  1.0000
  Ag  Ag6593    1.0  0.57143  0.39286  0.75000  1.0000
  Ag  Ag6594    1.0  0.60714  0.35714  0.75000  1.0000
  Ag  Ag6595    1.0  0.60714  0.39286  0.71429  1.0000
  Ag  Ag6596    1.0  0.57143  0.35714  0.78571  1.0000
  Ag  Ag6597    1.0  0.57143  0.39286  0.82143  1.0000
  Ag  Ag6598    1.0  0.60714  0.35714  0.82143  1.0000
  Ag  Ag6599    1.0  0.60714  0.39286  0.78571  1.0000
  Ag  Ag6600    1.0  0.57143  0.35714  0.85714  1.0000
  Ag  Ag6601    1.0  0.57143  0.39286  0.89286  1.0000
  Ag  Ag6602    1.0  0.60714  0.35714  0.89286  1.0000
  Ag  Ag6603    1.0  0.60714  0.39286  0.85714  1.0000
  Ag  Ag6604    1.0  0.57143  0.35714  0.92857  1.0000
  Ag  Ag6605    1.0  0.57143  0.39286  0.96429  1.0000
  Ag  Ag6606    1.0  0.60714  0.35714  0.96429  1.0000
  Ag  Ag6607    1.0  0.60714  0.39286  0.92857  1.0000
  Ag  Ag6608    1.0  0.57143  0.42857  0.00000  1.0000
  Ag  Ag6609    1.0  0.57143  0.46429  0.03571  1.0000
  Ag  Ag6610    1.0  0.60714  0.42857  0.03571  1.0000
  Ag  Ag6611    1.0  0.60714  0.46429  0.00000  1.0000
  Ag  Ag6612    1.0  0.57143  0.42857  0.07143  1.0000
  Ag  Ag6613    1.0  0.57143  0.46429  0.10714  1.0000
  Ag  Ag6614    1.0  0.60714  0.42857  0.10714  1.0000
  Ag  Ag6615    1.0  0.60714  0.46429  0.07143  1.0000
  Ag  Ag6616    1.0  0.57143  0.42857  0.14286  1.0000
  Ag  Ag6617    1.0  0.57143  0.46429  0.17857  1.0000
  Ag  Ag6618    1.0  0.60714  0.42857  0.17857  1.0000
  Ag  Ag6619    1.0  0.60714  0.46429  0.14286  1.0000
  Ag  Ag6620    1.0  0.57143  0.42857  0.21429  1.0000
  Ag  Ag6621    1.0  0.57143  0.46429  0.25000  1.0000
  Ag  Ag6622    1.0  0.60714  0.42857  0.25000  1.0000
  Ag  Ag6623    1.0  0.60714  0.46429  0.21429  1.0000
  Ag  Ag6624    1.0  0.57143  0.42857  0.28571  1.0000
  Ag  Ag6625    1.0  0.57143  0.46429  0.32143  1.0000
  Ag  Ag6626    1.0  0.60714  0.42857  0.32143  1.0000
  Ag  Ag6627    1.0  0.60714  0.46429  0.28571  1.0000
  Ag  Ag6628    1.0  0.57143  0.42857  0.35714  1.0000
  Ag  Ag6629    1.0  0.57143  0.46429  0.39286  1.0000
  Ag  Ag6630    1.0  0.60714  0.42857  0.39286  1.0000
  Ag  Ag6631    1.0  0.60714  0.46429  0.35714  1.0000
  Ag  Ag6632    1.0  0.57143  0.42857  0.42857  1.0000
  Ag  Ag6633    1.0  0.57143  0.46429  0.46429  1.0000
  Ag  Ag6634    1.0  0.60714  0.42857  0.46429  1.0000
  Ag  Ag6635    1.0  0.60714  0.46429  0.42857  1.0000
  Ag  Ag6636    1.0  0.57143  0.42857  0.50000  1.0000
  Ag  Ag6637    1.0  0.57143  0.46429  0.53571  1.0000
  Ag  Ag6638    1.0  0.60714  0.42857  0.53571  1.0000
  Ag  Ag6639    1.0  0.60714  0.46429  0.50000  1.0000
  Ag  Ag6640    1.0  0.57143  0.42857  0.57143  1.0000
  Ag  Ag6641    1.0  0.57143  0.46429  0.60714  1.0000
  Ag  Ag6642    1.0  0.60714  0.42857  0.60714  1.0000
  Ag  Ag6643    1.0  0.60714  0.46429  0.57143  1.0000
  Ag  Ag6644    1.0  0.57143  0.42857  0.64286  1.0000
  Ag  Ag6645    1.0  0.57143  0.46429  0.67857  1.0000
  Ag  Ag6646    1.0  0.60714  0.42857  0.67857  1.0000
  Ag  Ag6647    1.0  0.60714  0.46429  0.64286  1.0000
  Ag  Ag6648    1.0  0.57143  0.42857  0.71429  1.0000
  Ag  Ag6649    1.0  0.57143  0.46429  0.75000  1.0000
  Ag  Ag6650    1.0  0.60714  0.42857  0.75000  1.0000
  Ag  Ag6651    1.0  0.60714  0.46429  0.71429  1.0000
  Ag  Ag6652    1.0  0.57143  0.42857  0.78571  1.0000
  Ag  Ag6653    1.0  0.57143  0.46429  0.82143  1.0000
  Ag  Ag6654    1.0  0.60714  0.42857  0.82143  1.0000
  Ag  Ag6655    1.0  0.60714  0.46429  0.78571  1.0000
  Ag  Ag6656    1.0  0.57143  0.42857  0.85714  1.0000
  Ag  Ag6657    1.0  0.57143  0.46429  0.89286  1.0000
  Ag  Ag6658    1.0  0.60714  0.42857  0.89286  1.0000
  Ag  Ag6659    1.0  0.60714  0.46429  0.85714  1.0000
  Ag  Ag6660    1.0  0.57143  0.42857  0.92857  1.0000
  Ag  Ag6661    1.0  0.57143  0.46429  0.96429  1.0000
  Ag  Ag6662    1.0  0.60714  0.42857  0.96429  1.0000
  Ag  Ag6663    1.0  0.60714  0.46429  0.92857  1.0000
  Ag  Ag6664    1.0  0.57143  0.50000  0.00000  1.0000
  Ag  Ag6665    1.0  0.57143  0.53571  0.03571  1.0000
  Ag  Ag6666    1.0  0.60714  0.50000  0.03571  1.0000
  Ag  Ag6667    1.0  0.60714  0.53571  0.00000  1.0000
  Ag  Ag6668    1.0  0.57143  0.50000  0.07143  1.0000
  Ag  Ag6669    1.0  0.57143  0.53571  0.10714  1.0000
  Ag  Ag6670    1.0  0.60714  0.50000  0.10714  1.0000
  Ag  Ag6671    1.0  0.60714  0.53571  0.07143  1.0000
  Ag  Ag6672    1.0  0.57143  0.50000  0.14286  1.0000
  Ag  Ag6673    1.0  0.57143  0.53571  0.17857  1.0000
  Ag  Ag6674    1.0  0.60714  0.50000  0.17857  1.0000
  Ag  Ag6675    1.0  0.60714  0.53571  0.14286  1.0000
  Ag  Ag6676    1.0  0.57143  0.50000  0.21429  1.0000
  Ag  Ag6677    1.0  0.57143  0.53571  0.25000  1.0000
  Ag  Ag6678    1.0  0.60714  0.50000  0.25000  1.0000
  Ag  Ag6679    1.0  0.60714  0.53571  0.21429  1.0000
  Ag  Ag6680    1.0  0.57143  0.50000  0.28571  1.0000
  Ag  Ag6681    1.0  0.57143  0.53571  0.32143  1.0000
  Ag  Ag6682    1.0  0.60714  0.50000  0.32143  1.0000
  Ag  Ag6683    1.0  0.60714  0.53571  0.28571  1.0000
  Ag  Ag6684    1.0  0.57143  0.50000  0.35714  1.0000
  Ag  Ag6685    1.0  0.57143  0.53571  0.39286  1.0000
  Ag  Ag6686    1.0  0.60714  0.50000  0.39286  1.0000
  Ag  Ag6687    1.0  0.60714  0.53571  0.35714  1.0000
  Ag  Ag6688    1.0  0.57143  0.50000  0.42857  1.0000
  Ag  Ag6689    1.0  0.57143  0.53571  0.46429  1.0000
  Ag  Ag6690    1.0  0.60714  0.50000  0.46429  1.0000
  Ag  Ag6691    1.0  0.60714  0.53571  0.42857  1.0000
  Ag  Ag6692    1.0  0.57143  0.50000  0.50000  1.0000
  Ag  Ag6693    1.0  0.57143  0.53571  0.53571  1.0000
  Ag  Ag6694    1.0  0.60714  0.50000  0.53571  1.0000
  Ag  Ag6695    1.0  0.60714  0.53571  0.50000  1.0000
  Ag  Ag6696    1.0  0.57143  0.50000  0.57143  1.0000
  Ag  Ag6697    1.0  0.57143  0.53571  0.60714  1.0000
  Ag  Ag6698    1.0  0.60714  0.50000  0.60714  1.0000
  Ag  Ag6699    1.0  0.60714  0.53571  0.57143  1.0000
  Ag  Ag6700    1.0  0.57143  0.50000  0.64286  1.0000
  Ag  Ag6701    1.0  0.57143  0.53571  0.67857  1.0000
  Ag  Ag6702    1.0  0.60714  0.50000  0.67857  1.0000
  Ag  Ag6703    1.0  0.60714  0.53571  0.64286  1.0000
  Ag  Ag6704    1.0  0.57143  0.50000  0.71429  1.0000
  Ag  Ag6705    1.0  0.57143  0.53571  0.75000  1.0000
  Ag  Ag6706    1.0  0.60714  0.50000  0.75000  1.0000
  Ag  Ag6707    1.0  0.60714  0.53571  0.71429  1.0000
  Ag  Ag6708    1.0  0.57143  0.50000  0.78571  1.0000
  Ag  Ag6709    1.0  0.57143  0.53571  0.82143  1.0000
  Ag  Ag6710    1.0  0.60714  0.50000  0.82143  1.0000
  Ag  Ag6711    1.0  0.60714  0.53571  0.78571  1.0000
  Ag  Ag6712    1.0  0.57143  0.50000  0.85714  1.0000
  Ag  Ag6713    1.0  0.57143  0.53571  0.89286  1.0000
  Ag  Ag6714    1.0  0.60714  0.50000  0.89286  1.0000
  Ag  Ag6715    1.0  0.60714  0.53571  0.85714  1.0000
  Ag  Ag6716    1.0  0.57143  0.50000  0.92857  1.0000
  Ag  Ag6717    1.0  0.57143  0.53571  0.96429  1.0000
  Ag  Ag6718    1.0  0.60714  0.50000  0.96429  1.0000
  Ag  Ag6719    1.0  0.60714  0.53571  0.92857  1.0000
  Ag  Ag6720    1.0  0.57143  0.57143  0.00000  1.0000
  Ag  Ag6721    1.0  0.57143  0.60714  0.03571  1.0000
  Ag  Ag6722    1.0  0.60714  0.57143  0.03571  1.0000
  Ag  Ag6723    1.0  0.60714  0.60714  0.00000  1.0000
  Ag  Ag6724    1.0  0.57143  0.57143  0.07143  1.0000
  Ag  Ag6725    1.0  0.57143  0.60714  0.10714  1.0000
  Ag  Ag6726    1.0  0.60714  0.57143  0.10714  1.0000
  Ag  Ag6727    1.0  0.60714  0.60714  0.07143  1.0000
  Ag  Ag6728    1.0  0.57143  0.57143  0.14286  1.0000
  Ag  Ag6729    1.0  0.57143  0.60714  0.17857  1.0000
  Ag  Ag6730    1.0  0.60714  0.57143  0.17857  1.0000
  Ag  Ag6731    1.0  0.60714  0.60714  0.14286  1.0000
  Ag  Ag6732    1.0  0.57143  0.57143  0.21429  1.0000
  Ag  Ag6733    1.0  0.57143  0.60714  0.25000  1.0000
  Ag  Ag6734    1.0  0.60714  0.57143  0.25000  1.0000
  Ag  Ag6735    1.0  0.60714  0.60714  0.21429  1.0000
  Ag  Ag6736    1.0  0.57143  0.57143  0.28571  1.0000
  Ag  Ag6737    1.0  0.57143  0.60714  0.32143  1.0000
  Ag  Ag6738    1.0  0.60714  0.57143  0.32143  1.0000
  Ag  Ag6739    1.0  0.60714  0.60714  0.28571  1.0000
  Ag  Ag6740    1.0  0.57143  0.57143  0.35714  1.0000
  Ag  Ag6741    1.0  0.57143  0.60714  0.39286  1.0000
  Ag  Ag6742    1.0  0.60714  0.57143  0.39286  1.0000
  Ag  Ag6743    1.0  0.60714  0.60714  0.35714  1.0000
  Ag  Ag6744    1.0  0.57143  0.57143  0.42857  1.0000
  Ag  Ag6745    1.0  0.57143  0.60714  0.46429  1.0000
  Ag  Ag6746    1.0  0.60714  0.57143  0.46429  1.0000
  Ag  Ag6747    1.0  0.60714  0.60714  0.42857  1.0000
  Ag  Ag6748    1.0  0.57143  0.57143  0.50000  1.0000
  Ag  Ag6749    1.0  0.57143  0.60714  0.53571  1.0000
  Ag  Ag6750    1.0  0.60714  0.57143  0.53571  1.0000
  Ag  Ag6751    1.0  0.60714  0.60714  0.50000  1.0000
  Ag  Ag6752    1.0  0.57143  0.57143  0.57143  1.0000
  Ag  Ag6753    1.0  0.57143  0.60714  0.60714  1.0000
  Ag  Ag6754    1.0  0.60714  0.57143  0.60714  1.0000
  Ag  Ag6755    1.0  0.60714  0.60714  0.57143  1.0000
  Ag  Ag6756    1.0  0.57143  0.57143  0.64286  1.0000
  Ag  Ag6757    1.0  0.57143  0.60714  0.67857  1.0000
  Ag  Ag6758    1.0  0.60714  0.57143  0.67857  1.0000
  Ag  Ag6759    1.0  0.60714  0.60714  0.64286  1.0000
  Ag  Ag6760    1.0  0.57143  0.57143  0.71429  1.0000
  Ag  Ag6761    1.0  0.57143  0.60714  0.75000  1.0000
  Ag  Ag6762    1.0  0.60714  0.57143  0.75000  1.0000
  Ag  Ag6763    1.0  0.60714  0.60714  0.71429  1.0000
  Ag  Ag6764    1.0  0.57143  0.57143  0.78571  1.0000
  Ag  Ag6765    1.0  0.57143  0.60714  0.82143  1.0000
  Ag  Ag6766    1.0  0.60714  0.57143  0.82143  1.0000
  Ag  Ag6767    1.0  0.60714  0.60714  0.78571  1.0000
  Ag  Ag6768    1.0  0.57143  0.57143  0.85714  1.0000
  Ag  Ag6769    1.0  0.57143  0.60714  0.89286  1.0000
  Ag  Ag6770    1.0  0.60714  0.57143  0.89286  1.0000
  Ag  Ag6771    1.0  0.60714  0.60714  0.85714  1.0000
  Ag  Ag6772    1.0  0.57143  0.57143  0.92857  1.0000
  Ag  Ag6773    1.0  0.57143  0.60714  0.96429  1.0000
  Ag  Ag6774    1.0  0.60714  0.57143  0.96429  1.0000
  Ag  Ag6775    1.0  0.60714  0.60714  0.92857  1.0000
  Ag  Ag6776    1.0  0.57143  0.64286  0.00000  1.0000
  Ag  Ag6777    1.0  0.57143  0.67857  0.03571  1.0000
  Ag  Ag6778    1.0  0.60714  0.64286  0.03571  1.0000
  Ag  Ag6779    1.0  0.60714  0.67857  0.00000  1.0000
  Ag  Ag6780    1.0  0.57143  0.64286  0.07143  1.0000
  Ag  Ag6781    1.0  0.57143  0.67857  0.10714  1.0000
  Ag  Ag6782    1.0  0.60714  0.64286  0.10714  1.0000
  Ag  Ag6783    1.0  0.60714  0.67857  0.07143  1.0000
  Ag  Ag6784    1.0  0.57143  0.64286  0.14286  1.0000
  Ag  Ag6785    1.0  0.57143  0.67857  0.17857  1.0000
  Ag  Ag6786    1.0  0.60714  0.64286  0.17857  1.0000
  Ag  Ag6787    1.0  0.60714  0.67857  0.14286  1.0000
  Ag  Ag6788    1.0  0.57143  0.64286  0.21429  1.0000
  Ag  Ag6789    1.0  0.57143  0.67857  0.25000  1.0000
  Ag  Ag6790    1.0  0.60714  0.64286  0.25000  1.0000
  Ag  Ag6791    1.0  0.60714  0.67857  0.21429  1.0000
  Ag  Ag6792    1.0  0.57143  0.64286  0.28571  1.0000
  Ag  Ag6793    1.0  0.57143  0.67857  0.32143  1.0000
  Ag  Ag6794    1.0  0.60714  0.64286  0.32143  1.0000
  Ag  Ag6795    1.0  0.60714  0.67857  0.28571  1.0000
  Ag  Ag6796    1.0  0.57143  0.64286  0.35714  1.0000
  Ag  Ag6797    1.0  0.57143  0.67857  0.39286  1.0000
  Ag  Ag6798    1.0  0.60714  0.64286  0.39286  1.0000
  Ag  Ag6799    1.0  0.60714  0.67857  0.35714  1.0000
  Ag  Ag6800    1.0  0.57143  0.64286  0.42857  1.0000
  Ag  Ag6801    1.0  0.57143  0.67857  0.46429  1.0000
  Ag  Ag6802    1.0  0.60714  0.64286  0.46429  1.0000
  Ag  Ag6803    1.0  0.60714  0.67857  0.42857  1.0000
  Ag  Ag6804    1.0  0.57143  0.64286  0.50000  1.0000
  Ag  Ag6805    1.0  0.57143  0.67857  0.53571  1.0000
  Ag  Ag6806    1.0  0.60714  0.64286  0.53571  1.0000
  Ag  Ag6807    1.0  0.60714  0.67857  0.50000  1.0000
  Ag  Ag6808    1.0  0.57143  0.64286  0.57143  1.0000
  Ag  Ag6809    1.0  0.57143  0.67857  0.60714  1.0000
  Ag  Ag6810    1.0  0.60714  0.64286  0.60714  1.0000
  Ag  Ag6811    1.0  0.60714  0.67857  0.57143  1.0000
  Ag  Ag6812    1.0  0.57143  0.64286  0.64286  1.0000
  Ag  Ag6813    1.0  0.57143  0.67857  0.67857  1.0000
  Ag  Ag6814    1.0  0.60714  0.64286  0.67857  1.0000
  Ag  Ag6815    1.0  0.60714  0.67857  0.64286  1.0000
  Ag  Ag6816    1.0  0.57143  0.64286  0.71429  1.0000
  Ag  Ag6817    1.0  0.57143  0.67857  0.75000  1.0000
  Ag  Ag6818    1.0  0.60714  0.64286  0.75000  1.0000
  Ag  Ag6819    1.0  0.60714  0.67857  0.71429  1.0000
  Ag  Ag6820    1.0  0.57143  0.64286  0.78571  1.0000
  Ag  Ag6821    1.0  0.57143  0.67857  0.82143  1.0000
  Ag  Ag6822    1.0  0.60714  0.64286  0.82143  1.0000
  Ag  Ag6823    1.0  0.60714  0.67857  0.78571  1.0000
  Ag  Ag6824    1.0  0.57143  0.64286  0.85714  1.0000
  Ag  Ag6825    1.0  0.57143  0.67857  0.89286  1.0000
  Ag  Ag6826    1.0  0.60714  0.64286  0.89286  1.0000
  Ag  Ag6827    1.0  0.60714  0.67857  0.85714  1.0000
  Ag  Ag6828    1.0  0.57143  0.64286  0.92857  1.0000
  Ag  Ag6829    1.0  0.57143  0.67857  0.96429  1.0000
  Ag  Ag6830    1.0  0.60714  0.64286  0.96429  1.0000
  Ag  Ag6831    1.0  0.60714  0.67857  0.92857  1.0000
  Ag  Ag6832    1.0  0.57143  0.71429  0.00000  1.0000
  Ag  Ag6833    1.0  0.57143  0.75000  0.03571  1.0000
  Ag  Ag6834    1.0  0.60714  0.71429  0.03571  1.0000
  Ag  Ag6835    1.0  0.60714  0.75000  0.00000  1.0000
  Ag  Ag6836    1.0  0.57143  0.71429  0.07143  1.0000
  Ag  Ag6837    1.0  0.57143  0.75000  0.10714  1.0000
  Ag  Ag6838    1.0  0.60714  0.71429  0.10714  1.0000
  Ag  Ag6839    1.0  0.60714  0.75000  0.07143  1.0000
  Ag  Ag6840    1.0  0.57143  0.71429  0.14286  1.0000
  Ag  Ag6841    1.0  0.57143  0.75000  0.17857  1.0000
  Ag  Ag6842    1.0  0.60714  0.71429  0.17857  1.0000
  Ag  Ag6843    1.0  0.60714  0.75000  0.14286  1.0000
  Ag  Ag6844    1.0  0.57143  0.71429  0.21429  1.0000
  Ag  Ag6845    1.0  0.57143  0.75000  0.25000  1.0000
  Ag  Ag6846    1.0  0.60714  0.71429  0.25000  1.0000
  Ag  Ag6847    1.0  0.60714  0.75000  0.21429  1.0000
  Ag  Ag6848    1.0  0.57143  0.71429  0.28571  1.0000
  Ag  Ag6849    1.0  0.57143  0.75000  0.32143  1.0000
  Ag  Ag6850    1.0  0.60714  0.71429  0.32143  1.0000
  Ag  Ag6851    1.0  0.60714  0.75000  0.28571  1.0000
  Ag  Ag6852    1.0  0.57143  0.71429  0.35714  1.0000
  Ag  Ag6853    1.0  0.57143  0.75000  0.39286  1.0000
  Ag  Ag6854    1.0  0.60714  0.71429  0.39286  1.0000
  Ag  Ag6855    1.0  0.60714  0.75000  0.35714  1.0000
  Ag  Ag6856    1.0  0.57143  0.71429  0.42857  1.0000
  Ag  Ag6857    1.0  0.57143  0.75000  0.46429  1.0000
  Ag  Ag6858    1.0  0.60714  0.71429  0.46429  1.0000
  Ag  Ag6859    1.0  0.60714  0.75000  0.42857  1.0000
  Ag  Ag6860    1.0  0.57143  0.71429  0.50000  1.0000
  Ag  Ag6861    1.0  0.57143  0.75000  0.53571  1.0000
  Ag  Ag6862    1.0  0.60714  0.71429  0.53571  1.0000
  Ag  Ag6863    1.0  0.60714  0.75000  0.50000  1.0000
  Ag  Ag6864    1.0  0.57143  0.71429  0.57143  1.0000
  Ag  Ag6865    1.0  0.57143  0.75000  0.60714  1.0000
  Ag  Ag6866    1.0  0.60714  0.71429  0.60714  1.0000
  Ag  Ag6867    1.0  0.60714  0.75000  0.57143  1.0000
  Ag  Ag6868    1.0  0.57143  0.71429  0.64286  1.0000
  Ag  Ag6869    1.0  0.57143  0.75000  0.67857  1.0000
  Ag  Ag6870    1.0  0.60714  0.71429  0.67857  1.0000
  Ag  Ag6871    1.0  0.60714  0.75000  0.64286  1.0000
  Ag  Ag6872    1.0  0.57143  0.71429  0.71429  1.0000
  Ag  Ag6873    1.0  0.57143  0.75000  0.75000  1.0000
  Ag  Ag6874    1.0  0.60714  0.71429  0.75000  1.0000
  Ag  Ag6875    1.0  0.60714  0.75000  0.71429  1.0000
  Ag  Ag6876    1.0  0.57143  0.71429  0.78571  1.0000
  Ag  Ag6877    1.0  0.57143  0.75000  0.82143  1.0000
  Ag  Ag6878    1.0  0.60714  0.71429  0.82143  1.0000
  Ag  Ag6879    1.0  0.60714  0.75000  0.78571  1.0000
  Ag  Ag6880    1.0  0.57143  0.71429  0.85714  1.0000
  Ag  Ag6881    1.0  0.57143  0.75000  0.89286  1.0000
  Ag  Ag6882    1.0  0.60714  0.71429  0.89286  1.0000
  Ag  Ag6883    1.0  0.60714  0.75000  0.85714  1.0000
  Ag  Ag6884    1.0  0.57143  0.71429  0.92857  1.0000
  Ag  Ag6885    1.0  0.57143  0.75000  0.96429  1.0000
  Ag  Ag6886    1.0  0.60714  0.71429  0.96429  1.0000
  Ag  Ag6887    1.0  0.60714  0.75000  0.92857  1.0000
  Ag  Ag6888    1.0  0.57143  0.78571  0.00000  1.0000
  Ag  Ag6889    1.0  0.57143  0.82143  0.03571  1.0000
  Ag  Ag6890    1.0  0.60714  0.78571  0.03571  1.0000
  Ag  Ag6891    1.0  0.60714  0.82143  0.00000  1.0000
  Ag  Ag6892    1.0  0.57143  0.78571  0.07143  1.0000
  Ag  Ag6893    1.0  0.57143  0.82143  0.10714  1.0000
  Ag  Ag6894    1.0  0.60714  0.78571  0.10714  1.0000
  Ag  Ag6895    1.0  0.60714  0.82143  0.07143  1.0000
  Ag  Ag6896    1.0  0.57143  0.78571  0.14286  1.0000
  Ag  Ag6897    1.0  0.57143  0.82143  0.17857  1.0000
  Ag  Ag6898    1.0  0.60714  0.78571  0.17857  1.0000
  Ag  Ag6899    1.0  0.60714  0.82143  0.14286  1.0000
  Ag  Ag6900    1.0  0.57143  0.78571  0.21429  1.0000
  Ag  Ag6901    1.0  0.57143  0.82143  0.25000  1.0000
  Ag  Ag6902    1.0  0.60714  0.78571  0.25000  1.0000
  Ag  Ag6903    1.0  0.60714  0.82143  0.21429  1.0000
  Ag  Ag6904    1.0  0.57143  0.78571  0.28571  1.0000
  Ag  Ag6905    1.0  0.57143  0.82143  0.32143  1.0000
  Ag  Ag6906    1.0  0.60714  0.78571  0.32143  1.0000
  Ag  Ag6907    1.0  0.60714  0.82143  0.28571  1.0000
  Ag  Ag6908    1.0  0.57143  0.78571  0.35714  1.0000
  Ag  Ag6909    1.0  0.57143  0.82143  0.39286  1.0000
  Ag  Ag6910    1.0  0.60714  0.78571  0.39286  1.0000
  Ag  Ag6911    1.0  0.60714  0.82143  0.35714  1.0000
  Ag  Ag6912    1.0  0.57143  0.78571  0.42857  1.0000
  Ag  Ag6913    1.0  0.57143  0.82143  0.46429  1.0000
  Ag  Ag6914    1.0  0.60714  0.78571  0.46429  1.0000
  Ag  Ag6915    1.0  0.60714  0.82143  0.42857  1.0000
  Ag  Ag6916    1.0  0.57143  0.78571  0.50000  1.0000
  Ag  Ag6917    1.0  0.57143  0.82143  0.53571  1.0000
  Ag  Ag6918    1.0  0.60714  0.78571  0.53571  1.0000
  Ag  Ag6919    1.0  0.60714  0.82143  0.50000  1.0000
  Ag  Ag6920    1.0  0.57143  0.78571  0.57143  1.0000
  Ag  Ag6921    1.0  0.57143  0.82143  0.60714  1.0000
  Ag  Ag6922    1.0  0.60714  0.78571  0.60714  1.0000
  Ag  Ag6923    1.0  0.60714  0.82143  0.57143  1.0000
  Ag  Ag6924    1.0  0.57143  0.78571  0.64286  1.0000
  Ag  Ag6925    1.0  0.57143  0.82143  0.67857  1.0000
  Ag  Ag6926    1.0  0.60714  0.78571  0.67857  1.0000
  Ag  Ag6927    1.0  0.60714  0.82143  0.64286  1.0000
  Ag  Ag6928    1.0  0.57143  0.78571  0.71429  1.0000
  Ag  Ag6929    1.0  0.57143  0.82143  0.75000  1.0000
  Ag  Ag6930    1.0  0.60714  0.78571  0.75000  1.0000
  Ag  Ag6931    1.0  0.60714  0.82143  0.71429  1.0000
  Ag  Ag6932    1.0  0.57143  0.78571  0.78571  1.0000
  Ag  Ag6933    1.0  0.57143  0.82143  0.82143  1.0000
  Ag  Ag6934    1.0  0.60714  0.78571  0.82143  1.0000
  Ag  Ag6935    1.0  0.60714  0.82143  0.78571  1.0000
  Ag  Ag6936    1.0  0.57143  0.78571  0.85714  1.0000
  Ag  Ag6937    1.0  0.57143  0.82143  0.89286  1.0000
  Ag  Ag6938    1.0  0.60714  0.78571  0.89286  1.0000
  Ag  Ag6939    1.0  0.60714  0.82143  0.85714  1.0000
  Ag  Ag6940    1.0  0.57143  0.78571  0.92857  1.0000
  Ag  Ag6941    1.0  0.57143  0.82143  0.96429  1.0000
  Ag  Ag6942    1.0  0.60714  0.78571  0.96429  1.0000
  Ag  Ag6943    1.0  0.60714  0.82143  0.92857  1.0000
  Ag  Ag6944    1.0  0.57143  0.85714  0.00000  1.0000
  Ag  Ag6945    1.0  0.57143  0.89286  0.03571  1.0000
  Ag  Ag6946    1.0  0.60714  0.85714  0.03571  1.0000
  Ag  Ag6947    1.0  0.60714  0.89286  0.00000  1.0000
  Ag  Ag6948    1.0  0.57143  0.85714  0.07143  1.0000
  Ag  Ag6949    1.0  0.57143  0.89286  0.10714  1.0000
  Ag  Ag6950    1.0  0.60714  0.85714  0.10714  1.0000
  Ag  Ag6951    1.0  0.60714  0.89286  0.07143  1.0000
  Ag  Ag6952    1.0  0.57143  0.85714  0.14286  1.0000
  Ag  Ag6953    1.0  0.57143  0.89286  0.17857  1.0000
  Ag  Ag6954    1.0  0.60714  0.85714  0.17857  1.0000
  Ag  Ag6955    1.0  0.60714  0.89286  0.14286  1.0000
  Ag  Ag6956    1.0  0.57143  0.85714  0.21429  1.0000
  Ag  Ag6957    1.0  0.57143  0.89286  0.25000  1.0000
  Ag  Ag6958    1.0  0.60714  0.85714  0.25000  1.0000
  Ag  Ag6959    1.0  0.60714  0.89286  0.21429  1.0000
  Ag  Ag6960    1.0  0.57143  0.85714  0.28571  1.0000
  Ag  Ag6961    1.0  0.57143  0.89286  0.32143  1.0000
  Ag  Ag6962    1.0  0.60714  0.85714  0.32143  1.0000
  Ag  Ag6963    1.0  0.60714  0.89286  0.28571  1.0000
  Ag  Ag6964    1.0  0.57143  0.85714  0.35714  1.0000
  Ag  Ag6965    1.0  0.57143  0.89286  0.39286  1.0000
  Ag  Ag6966    1.0  0.60714  0.85714  0.39286  1.0000
  Ag  Ag6967    1.0  0.60714  0.89286  0.35714  1.0000
  Ag  Ag6968    1.0  0.57143  0.85714  0.42857  1.0000
  Ag  Ag6969    1.0  0.57143  0.89286  0.46429  1.0000
  Ag  Ag6970    1.0  0.60714  0.85714  0.46429  1.0000
  Ag  Ag6971    1.0  0.60714  0.89286  0.42857  1.0000
  Ag  Ag6972    1.0  0.57143  0.85714  0.50000  1.0000
  Ag  Ag6973    1.0  0.57143  0.89286  0.53571  1.0000
  Ag  Ag6974    1.0  0.60714  0.85714  0.53571  1.0000
  Ag  Ag6975    1.0  0.60714  0.89286  0.50000  1.0000
  Ag  Ag6976    1.0  0.57143  0.85714  0.57143  1.0000
  Ag  Ag6977    1.0  0.57143  0.89286  0.60714  1.0000
  Ag  Ag6978    1.0  0.60714  0.85714  0.60714  1.0000
  Ag  Ag6979    1.0  0.60714  0.89286  0.57143  1.0000
  Ag  Ag6980    1.0  0.57143  0.85714  0.64286  1.0000
  Ag  Ag6981    1.0  0.57143  0.89286  0.67857  1.0000
  Ag  Ag6982    1.0  0.60714  0.85714  0.67857  1.0000
  Ag  Ag6983    1.0  0.60714  0.89286  0.64286  1.0000
  Ag  Ag6984    1.0  0.57143  0.85714  0.71429  1.0000
  Ag  Ag6985    1.0  0.57143  0.89286  0.75000  1.0000
  Ag  Ag6986    1.0  0.60714  0.85714  0.75000  1.0000
  Ag  Ag6987    1.0  0.60714  0.89286  0.71429  1.0000
  Ag  Ag6988    1.0  0.57143  0.85714  0.78571  1.0000
  Ag  Ag6989    1.0  0.57143  0.89286  0.82143  1.0000
  Ag  Ag6990    1.0  0.60714  0.85714  0.82143  1.0000
  Ag  Ag6991    1.0  0.60714  0.89286  0.78571  1.0000
  Ag  Ag6992    1.0  0.57143  0.85714  0.85714  1.0000
  Ag  Ag6993    1.0  0.57143  0.89286  0.89286  1.0000
  Ag  Ag6994    1.0  0.60714  0.85714  0.89286  1.0000
  Ag  Ag6995    1.0  0.60714  0.89286  0.85714  1.0000
  Ag  Ag6996    1.0  0.57143  0.85714  0.92857  1.0000
  Ag  Ag6997    1.0  0.57143  0.89286  0.96429  1.0000
  Ag  Ag6998    1.0  0.60714  0.85714  0.96429  1.0000
  Ag  Ag6999    1.0  0.60714  0.89286  0.92857  1.0000
  Ag  Ag7000    1.0  0.57143  0.92857  0.00000  1.0000
  Ag  Ag7001    1.0  0.57143  0.96429  0.03571  1.0000
  Ag  Ag7002    1.0  0.60714  0.92857  0.03571  1.0000
  Ag  Ag7003    1.0  0.60714  0.96429  0.00000  1.0000
  Ag  Ag7004    1.0  0.57143  0.92857  0.07143  1.0000
  Ag  Ag7005    1.0  0.57143  0.96429  0.10714  1.0000
  Ag  Ag7006    1.0  0.60714  0.92857  0.10714  1.0000
  Ag  Ag7007    1.0  0.60714  0.96429  0.07143  1.0000
  Ag  Ag7008    1.0  0.57143  0.92857  0.14286  1.0000
  Ag  Ag7009    1.0  0.57143  0.96429  0.17857  1.0000
  Ag  Ag7010    1.0  0.60714  0.92857  0.17857  1.0000
  Ag  Ag7011    1.0  0.60714  0.96429  0.14286  1.0000
  Ag  Ag7012    1.0  0.57143  0.92857  0.21429  1.0000
  Ag  Ag7013    1.0  0.57143  0.96429  0.25000  1.0000
  Ag  Ag7014    1.0  0.60714  0.92857  0.25000  1.0000
  Ag  Ag7015    1.0  0.60714  0.96429  0.21429  1.0000
  Ag  Ag7016    1.0  0.57143  0.92857  0.28571  1.0000
  Ag  Ag7017    1.0  0.57143  0.96429  0.32143  1.0000
  Ag  Ag7018    1.0  0.60714  0.92857  0.32143  1.0000
  Ag  Ag7019    1.0  0.60714  0.96429  0.28571  1.0000
  Ag  Ag7020    1.0  0.57143  0.92857  0.35714  1.0000
  Ag  Ag7021    1.0  0.57143  0.96429  0.39286  1.0000
  Ag  Ag7022    1.0  0.60714  0.92857  0.39286  1.0000
  Ag  Ag7023    1.0  0.60714  0.96429  0.35714  1.0000
  Ag  Ag7024    1.0  0.57143  0.92857  0.42857  1.0000
  Ag  Ag7025    1.0  0.57143  0.96429  0.46429  1.0000
  Ag  Ag7026    1.0  0.60714  0.92857  0.46429  1.0000
  Ag  Ag7027    1.0  0.60714  0.96429  0.42857  1.0000
  Ag  Ag7028    1.0  0.57143  0.92857  0.50000  1.0000
  Ag  Ag7029    1.0  0.57143  0.96429  0.53571  1.0000
  Ag  Ag7030    1.0  0.60714  0.92857  0.53571  1.0000
  Ag  Ag7031    1.0  0.60714  0.96429  0.50000  1.0000
  Ag  Ag7032    1.0  0.57143  0.92857  0.57143  1.0000
  Ag  Ag7033    1.0  0.57143  0.96429  0.60714  1.0000
  Ag  Ag7034    1.0  0.60714  0.92857  0.60714  1.0000
  Ag  Ag7035    1.0  0.60714  0.96429  0.57143  1.0000
  Ag  Ag7036    1.0  0.57143  0.92857  0.64286  1.0000
  Ag  Ag7037    1.0  0.57143  0.96429  0.67857  1.0000
  Ag  Ag7038    1.0  0.60714  0.92857  0.67857  1.0000
  Ag  Ag7039    1.0  0.60714  0.96429  0.64286  1.0000
  Ag  Ag7040    1.0  0.57143  0.92857  0.71429  1.0000
  Ag  Ag7041    1.0  0.57143  0.96429  0.75000  1.0000
  Ag  Ag7042    1.0  0.60714  0.92857  0.75000  1.0000
  Ag  Ag7043    1.0  0.60714  0.96429  0.71429  1.0000
  Ag  Ag7044    1.0  0.57143  0.92857  0.78571  1.0000
  Ag  Ag7045    1.0  0.57143  0.96429  0.82143  1.0000
  Ag  Ag7046    1.0  0.60714  0.92857  0.82143  1.0000
  Ag  Ag7047    1.0  0.60714  0.96429  0.78571  1.0000
  Ag  Ag7048    1.0  0.57143  0.92857  0.85714  1.0000
  Ag  Ag7049    1.0  0.57143  0.96429  0.89286  1.0000
  Ag  Ag7050    1.0  0.60714  0.92857  0.89286  1.0000
  Ag  Ag7051    1.0  0.60714  0.96429  0.85714  1.0000
  Ag  Ag7052    1.0  0.57143  0.92857  0.92857  1.0000
  Ag  Ag7053    1.0  0.57143  0.96429  0.96429  1.0000
  Ag  Ag7054    1.0  0.60714  0.92857  0.96429  1.0000
  Ag  Ag7055    1.0  0.60714  0.96429  0.92857  1.0000
  Ag  Ag7056    1.0  0.64286  0.00000  0.00000  1.0000
  Ag  Ag7057    1.0  0.64286  0.03571  0.03571  1.0000
  Ag  Ag7058    1.0  0.67857  0.00000  0.03571  1.0000
  Ag  Ag7059    1.0  0.67857  0.03571  0.00000  1.0000
  Ag  Ag7060    1.0  0.64286  0.00000  0.07143  1.0000
  Ag  Ag7061    1.0  0.64286  0.03571  0.10714  1.0000
  Ag  Ag7062    1.0  0.67857  0.00000  0.10714  1.0000
  Ag  Ag7063    1.0  0.67857  0.03571  0.07143  1.0000
  Ag  Ag7064    1.0  0.64286  0.00000  0.14286  1.0000
  Ag  Ag7065    1.0  0.64286  0.03571  0.17857  1.0000
  Ag  Ag7066    1.0  0.67857  0.00000  0.17857  1.0000
  Ag  Ag7067    1.0  0.67857  0.03571  0.14286  1.0000
  Ag  Ag7068    1.0  0.64286  0.00000  0.21429  1.0000
  Ag  Ag7069    1.0  0.64286  0.03571  0.25000  1.0000
  Ag  Ag7070    1.0  0.67857  0.00000  0.25000  1.0000
  Ag  Ag7071    1.0  0.67857  0.03571  0.21429  1.0000
  Ag  Ag7072    1.0  0.64286  0.00000  0.28571  1.0000
  Ag  Ag7073    1.0  0.64286  0.03571  0.32143  1.0000
  Ag  Ag7074    1.0  0.67857  0.00000  0.32143  1.0000
  Ag  Ag7075    1.0  0.67857  0.03571  0.28571  1.0000
  Ag  Ag7076    1.0  0.64286  0.00000  0.35714  1.0000
  Ag  Ag7077    1.0  0.64286  0.03571  0.39286  1.0000
  Ag  Ag7078    1.0  0.67857  0.00000  0.39286  1.0000
  Ag  Ag7079    1.0  0.67857  0.03571  0.35714  1.0000
  Ag  Ag7080    1.0  0.64286  0.00000  0.42857  1.0000
  Ag  Ag7081    1.0  0.64286  0.03571  0.46429  1.0000
  Ag  Ag7082    1.0  0.67857  0.00000  0.46429  1.0000
  Ag  Ag7083    1.0  0.67857  0.03571  0.42857  1.0000
  Ag  Ag7084    1.0  0.64286  0.00000  0.50000  1.0000
  Ag  Ag7085    1.0  0.64286  0.03571  0.53571  1.0000
  Ag  Ag7086    1.0  0.67857  0.00000  0.53571  1.0000
  Ag  Ag7087    1.0  0.67857  0.03571  0.50000  1.0000
  Ag  Ag7088    1.0  0.64286  0.00000  0.57143  1.0000
  Ag  Ag7089    1.0  0.64286  0.03571  0.60714  1.0000
  Ag  Ag7090    1.0  0.67857  0.00000  0.60714  1.0000
  Ag  Ag7091    1.0  0.67857  0.03571  0.57143  1.0000
  Ag  Ag7092    1.0  0.64286  0.00000  0.64286  1.0000
  Ag  Ag7093    1.0  0.64286  0.03571  0.67857  1.0000
  Ag  Ag7094    1.0  0.67857  0.00000  0.67857  1.0000
  Ag  Ag7095    1.0  0.67857  0.03571  0.64286  1.0000
  Ag  Ag7096    1.0  0.64286  0.00000  0.71429  1.0000
  Ag  Ag7097    1.0  0.64286  0.03571  0.75000  1.0000
  Ag  Ag7098    1.0  0.67857  0.00000  0.75000  1.0000
  Ag  Ag7099    1.0  0.67857  0.03571  0.71429  1.0000
  Ag  Ag7100    1.0  0.64286  0.00000  0.78571  1.0000
  Ag  Ag7101    1.0  0.64286  0.03571  0.82143  1.0000
  Ag  Ag7102    1.0  0.67857  0.00000  0.82143  1.0000
  Ag  Ag7103    1.0  0.67857  0.03571  0.78571  1.0000
  Ag  Ag7104    1.0  0.64286  0.00000  0.85714  1.0000
  Ag  Ag7105    1.0  0.64286  0.03571  0.89286  1.0000
  Ag  Ag7106    1.0  0.67857  0.00000  0.89286  1.0000
  Ag  Ag7107    1.0  0.67857  0.03571  0.85714  1.0000
  Ag  Ag7108    1.0  0.64286  0.00000  0.92857  1.0000
  Ag  Ag7109    1.0  0.64286  0.03571  0.96429  1.0000
  Ag  Ag7110    1.0  0.67857  0.00000  0.96429  1.0000
  Ag  Ag7111    1.0  0.67857  0.03571  0.92857  1.0000
  Ag  Ag7112    1.0  0.64286  0.07143  0.00000  1.0000
  Ag  Ag7113    1.0  0.64286  0.10714  0.03571  1.0000
  Ag  Ag7114    1.0  0.67857  0.07143  0.03571  1.0000
  Ag  Ag7115    1.0  0.67857  0.10714  0.00000  1.0000
  Ag  Ag7116    1.0  0.64286  0.07143  0.07143  1.0000
  Ag  Ag7117    1.0  0.64286  0.10714  0.10714  1.0000
  Ag  Ag7118    1.0  0.67857  0.07143  0.10714  1.0000
  Ag  Ag7119    1.0  0.67857  0.10714  0.07143  1.0000
  Ag  Ag7120    1.0  0.64286  0.07143  0.14286  1.0000
  Ag  Ag7121    1.0  0.64286  0.10714  0.17857  1.0000
  Ag  Ag7122    1.0  0.67857  0.07143  0.17857  1.0000
  Ag  Ag7123    1.0  0.67857  0.10714  0.14286  1.0000
  Ag  Ag7124    1.0  0.64286  0.07143  0.21429  1.0000
  Ag  Ag7125    1.0  0.64286  0.10714  0.25000  1.0000
  Ag  Ag7126    1.0  0.67857  0.07143  0.25000  1.0000
  Ag  Ag7127    1.0  0.67857  0.10714  0.21429  1.0000
  Ag  Ag7128    1.0  0.64286  0.07143  0.28571  1.0000
  Ag  Ag7129    1.0  0.64286  0.10714  0.32143  1.0000
  Ag  Ag7130    1.0  0.67857  0.07143  0.32143  1.0000
  Ag  Ag7131    1.0  0.67857  0.10714  0.28571  1.0000
  Ag  Ag7132    1.0  0.64286  0.07143  0.35714  1.0000
  Ag  Ag7133    1.0  0.64286  0.10714  0.39286  1.0000
  Ag  Ag7134    1.0  0.67857  0.07143  0.39286  1.0000
  Ag  Ag7135    1.0  0.67857  0.10714  0.35714  1.0000
  Ag  Ag7136    1.0  0.64286  0.07143  0.42857  1.0000
  Ag  Ag7137    1.0  0.64286  0.10714  0.46429  1.0000
  Ag  Ag7138    1.0  0.67857  0.07143  0.46429  1.0000
  Ag  Ag7139    1.0  0.67857  0.10714  0.42857  1.0000
  Ag  Ag7140    1.0  0.64286  0.07143  0.50000  1.0000
  Ag  Ag7141    1.0  0.64286  0.10714  0.53571  1.0000
  Ag  Ag7142    1.0  0.67857  0.07143  0.53571  1.0000
  Ag  Ag7143    1.0  0.67857  0.10714  0.50000  1.0000
  Ag  Ag7144    1.0  0.64286  0.07143  0.57143  1.0000
  Ag  Ag7145    1.0  0.64286  0.10714  0.60714  1.0000
  Ag  Ag7146    1.0  0.67857  0.07143  0.60714  1.0000
  Ag  Ag7147    1.0  0.67857  0.10714  0.57143  1.0000
  Ag  Ag7148    1.0  0.64286  0.07143  0.64286  1.0000
  Ag  Ag7149    1.0  0.64286  0.10714  0.67857  1.0000
  Ag  Ag7150    1.0  0.67857  0.07143  0.67857  1.0000
  Ag  Ag7151    1.0  0.67857  0.10714  0.64286  1.0000
  Ag  Ag7152    1.0  0.64286  0.07143  0.71429  1.0000
  Ag  Ag7153    1.0  0.64286  0.10714  0.75000  1.0000
  Ag  Ag7154    1.0  0.67857  0.07143  0.75000  1.0000
  Ag  Ag7155    1.0  0.67857  0.10714  0.71429  1.0000
  Ag  Ag7156    1.0  0.64286  0.07143  0.78571  1.0000
  Ag  Ag7157    1.0  0.64286  0.10714  0.82143  1.0000
  Ag  Ag7158    1.0  0.67857  0.07143  0.82143  1.0000
  Ag  Ag7159    1.0  0.67857  0.10714  0.78571  1.0000
  Ag  Ag7160    1.0  0.64286  0.07143  0.85714  1.0000
  Ag  Ag7161    1.0  0.64286  0.10714  0.89286  1.0000
  Ag  Ag7162    1.0  0.67857  0.07143  0.89286  1.0000
  Ag  Ag7163    1.0  0.67857  0.10714  0.85714  1.0000
  Ag  Ag7164    1.0  0.64286  0.07143  0.92857  1.0000
  Ag  Ag7165    1.0  0.64286  0.10714  0.96429  1.0000
  Ag  Ag7166    1.0  0.67857  0.07143  0.96429  1.0000
  Ag  Ag7167    1.0  0.67857  0.10714  0.92857  1.0000
  Ag  Ag7168    1.0  0.64286  0.14286  0.00000  1.0000
  Ag  Ag7169    1.0  0.64286  0.17857  0.03571  1.0000
  Ag  Ag7170    1.0  0.67857  0.14286  0.03571  1.0000
  Ag  Ag7171    1.0  0.67857  0.17857  0.00000  1.0000
  Ag  Ag7172    1.0  0.64286  0.14286  0.07143  1.0000
  Ag  Ag7173    1.0  0.64286  0.17857  0.10714  1.0000
  Ag  Ag7174    1.0  0.67857  0.14286  0.10714  1.0000
  Ag  Ag7175    1.0  0.67857  0.17857  0.07143  1.0000
  Ag  Ag7176    1.0  0.64286  0.14286  0.14286  1.0000
  Ag  Ag7177    1.0  0.64286  0.17857  0.17857  1.0000
  Ag  Ag7178    1.0  0.67857  0.14286  0.17857  1.0000
  Ag  Ag7179    1.0  0.67857  0.17857  0.14286  1.0000
  Ag  Ag7180    1.0  0.64286  0.14286  0.21429  1.0000
  Ag  Ag7181    1.0  0.64286  0.17857  0.25000  1.0000
  Ag  Ag7182    1.0  0.67857  0.14286  0.25000  1.0000
  Ag  Ag7183    1.0  0.67857  0.17857  0.21429  1.0000
  Ag  Ag7184    1.0  0.64286  0.14286  0.28571  1.0000
  Ag  Ag7185    1.0  0.64286  0.17857  0.32143  1.0000
  Ag  Ag7186    1.0  0.67857  0.14286  0.32143  1.0000
  Ag  Ag7187    1.0  0.67857  0.17857  0.28571  1.0000
  Ag  Ag7188    1.0  0.64286  0.14286  0.35714  1.0000
  Ag  Ag7189    1.0  0.64286  0.17857  0.39286  1.0000
  Ag  Ag7190    1.0  0.67857  0.14286  0.39286  1.0000
  Ag  Ag7191    1.0  0.67857  0.17857  0.35714  1.0000
  Ag  Ag7192    1.0  0.64286  0.14286  0.42857  1.0000
  Ag  Ag7193    1.0  0.64286  0.17857  0.46429  1.0000
  Ag  Ag7194    1.0  0.67857  0.14286  0.46429  1.0000
  Ag  Ag7195    1.0  0.67857  0.17857  0.42857  1.0000
  Ag  Ag7196    1.0  0.64286  0.14286  0.50000  1.0000
  Ag  Ag7197    1.0  0.64286  0.17857  0.53571  1.0000
  Ag  Ag7198    1.0  0.67857  0.14286  0.53571  1.0000
  Ag  Ag7199    1.0  0.67857  0.17857  0.50000  1.0000
  Ag  Ag7200    1.0  0.64286  0.14286  0.57143  1.0000
  Ag  Ag7201    1.0  0.64286  0.17857  0.60714  1.0000
  Ag  Ag7202    1.0  0.67857  0.14286  0.60714  1.0000
  Ag  Ag7203    1.0  0.67857  0.17857  0.57143  1.0000
  Ag  Ag7204    1.0  0.64286  0.14286  0.64286  1.0000
  Ag  Ag7205    1.0  0.64286  0.17857  0.67857  1.0000
  Ag  Ag7206    1.0  0.67857  0.14286  0.67857  1.0000
  Ag  Ag7207    1.0  0.67857  0.17857  0.64286  1.0000
  Ag  Ag7208    1.0  0.64286  0.14286  0.71429  1.0000
  Ag  Ag7209    1.0  0.64286  0.17857  0.75000  1.0000
  Ag  Ag7210    1.0  0.67857  0.14286  0.75000  1.0000
  Ag  Ag7211    1.0  0.67857  0.17857  0.71429  1.0000
  Ag  Ag7212    1.0  0.64286  0.14286  0.78571  1.0000
  Ag  Ag7213    1.0  0.64286  0.17857  0.82143  1.0000
  Ag  Ag7214    1.0  0.67857  0.14286  0.82143  1.0000
  Ag  Ag7215    1.0  0.67857  0.17857  0.78571  1.0000
  Ag  Ag7216    1.0  0.64286  0.14286  0.85714  1.0000
  Ag  Ag7217    1.0  0.64286  0.17857  0.89286  1.0000
  Ag  Ag7218    1.0  0.67857  0.14286  0.89286  1.0000
  Ag  Ag7219    1.0  0.67857  0.17857  0.85714  1.0000
  Ag  Ag7220    1.0  0.64286  0.14286  0.92857  1.0000
  Ag  Ag7221    1.0  0.64286  0.17857  0.96429  1.0000
  Ag  Ag7222    1.0  0.67857  0.14286  0.96429  1.0000
  Ag  Ag7223    1.0  0.67857  0.17857  0.92857  1.0000
  Ag  Ag7224    1.0  0.64286  0.21429  0.00000  1.0000
  Ag  Ag7225    1.0  0.64286  0.25000  0.03571  1.0000
  Ag  Ag7226    1.0  0.67857  0.21429  0.03571  1.0000
  Ag  Ag7227    1.0  0.67857  0.25000  0.00000  1.0000
  Ag  Ag7228    1.0  0.64286  0.21429  0.07143  1.0000
  Ag  Ag7229    1.0  0.64286  0.25000  0.10714  1.0000
  Ag  Ag7230    1.0  0.67857  0.21429  0.10714  1.0000
  Ag  Ag7231    1.0  0.67857  0.25000  0.07143  1.0000
  Ag  Ag7232    1.0  0.64286  0.21429  0.14286  1.0000
  Ag  Ag7233    1.0  0.64286  0.25000  0.17857  1.0000
  Ag  Ag7234    1.0  0.67857  0.21429  0.17857  1.0000
  Ag  Ag7235    1.0  0.67857  0.25000  0.14286  1.0000
  Ag  Ag7236    1.0  0.64286  0.21429  0.21429  1.0000
  Ag  Ag7237    1.0  0.64286  0.25000  0.25000  1.0000
  Ag  Ag7238    1.0  0.67857  0.21429  0.25000  1.0000
  Ag  Ag7239    1.0  0.67857  0.25000  0.21429  1.0000
  Ag  Ag7240    1.0  0.64286  0.21429  0.28571  1.0000
  Ag  Ag7241    1.0  0.64286  0.25000  0.32143  1.0000
  Ag  Ag7242    1.0  0.67857  0.21429  0.32143  1.0000
  Ag  Ag7243    1.0  0.67857  0.25000  0.28571  1.0000
  Ag  Ag7244    1.0  0.64286  0.21429  0.35714  1.0000
  Ag  Ag7245    1.0  0.64286  0.25000  0.39286  1.0000
  Ag  Ag7246    1.0  0.67857  0.21429  0.39286  1.0000
  Ag  Ag7247    1.0  0.67857  0.25000  0.35714  1.0000
  Ag  Ag7248    1.0  0.64286  0.21429  0.42857  1.0000
  Ag  Ag7249    1.0  0.64286  0.25000  0.46429  1.0000
  Ag  Ag7250    1.0  0.67857  0.21429  0.46429  1.0000
  Ag  Ag7251    1.0  0.67857  0.25000  0.42857  1.0000
  Ag  Ag7252    1.0  0.64286  0.21429  0.50000  1.0000
  Ag  Ag7253    1.0  0.64286  0.25000  0.53571  1.0000
  Ag  Ag7254    1.0  0.67857  0.21429  0.53571  1.0000
  Ag  Ag7255    1.0  0.67857  0.25000  0.50000  1.0000
  Ag  Ag7256    1.0  0.64286  0.21429  0.57143  1.0000
  Ag  Ag7257    1.0  0.64286  0.25000  0.60714  1.0000
  Ag  Ag7258    1.0  0.67857  0.21429  0.60714  1.0000
  Ag  Ag7259    1.0  0.67857  0.25000  0.57143  1.0000
  Ag  Ag7260    1.0  0.64286  0.21429  0.64286  1.0000
  Ag  Ag7261    1.0  0.64286  0.25000  0.67857  1.0000
  Ag  Ag7262    1.0  0.67857  0.21429  0.67857  1.0000
  Ag  Ag7263    1.0  0.67857  0.25000  0.64286  1.0000
  Ag  Ag7264    1.0  0.64286  0.21429  0.71429  1.0000
  Ag  Ag7265    1.0  0.64286  0.25000  0.75000  1.0000
  Ag  Ag7266    1.0  0.67857  0.21429  0.75000  1.0000
  Ag  Ag7267    1.0  0.67857  0.25000  0.71429  1.0000
  Ag  Ag7268    1.0  0.64286  0.21429  0.78571  1.0000
  Ag  Ag7269    1.0  0.64286  0.25000  0.82143  1.0000
  Ag  Ag7270    1.0  0.67857  0.21429  0.82143  1.0000
  Ag  Ag7271    1.0  0.67857  0.25000  0.78571  1.0000
  Ag  Ag7272    1.0  0.64286  0.21429  0.85714  1.0000
  Ag  Ag7273    1.0  0.64286  0.25000  0.89286  1.0000
  Ag  Ag7274    1.0  0.67857  0.21429  0.89286  1.0000
  Ag  Ag7275    1.0  0.67857  0.25000  0.85714  1.0000
  Ag  Ag7276    1.0  0.64286  0.21429  0.92857  1.0000
  Ag  Ag7277    1.0  0.64286  0.25000  0.96429  1.0000
  Ag  Ag7278    1.0  0.67857  0.21429  0.96429  1.0000
  Ag  Ag7279    1.0  0.67857  0.25000  0.92857  1.0000
  Ag  Ag7280    1.0  0.64286  0.28571  0.00000  1.0000
  Ag  Ag7281    1.0  0.64286  0.32143  0.03571  1.0000
  Ag  Ag7282    1.0  0.67857  0.28571  0.03571  1.0000
  Ag  Ag7283    1.0  0.67857  0.32143  0.00000  1.0000
  Ag  Ag7284    1.0  0.64286  0.28571  0.07143  1.0000
  Ag  Ag7285    1.0  0.64286  0.32143  0.10714  1.0000
  Ag  Ag7286    1.0  0.67857  0.28571  0.10714  1.0000
  Ag  Ag7287    1.0  0.67857  0.32143  0.07143  1.0000
  Ag  Ag7288    1.0  0.64286  0.28571  0.14286  1.0000
  Ag  Ag7289    1.0  0.64286  0.32143  0.17857  1.0000
  Ag  Ag7290    1.0  0.67857  0.28571  0.17857  1.0000
  Ag  Ag7291    1.0  0.67857  0.32143  0.14286  1.0000
  Ag  Ag7292    1.0  0.64286  0.28571  0.21429  1.0000
  Ag  Ag7293    1.0  0.64286  0.32143  0.25000  1.0000
  Ag  Ag7294    1.0  0.67857  0.28571  0.25000  1.0000
  Ag  Ag7295    1.0  0.67857  0.32143  0.21429  1.0000
  Ag  Ag7296    1.0  0.64286  0.28571  0.28571  1.0000
  Ag  Ag7297    1.0  0.64286  0.32143  0.32143  1.0000
  Ag  Ag7298    1.0  0.67857  0.28571  0.32143  1.0000
  Ag  Ag7299    1.0  0.67857  0.32143  0.28571  1.0000
  Ag  Ag7300    1.0  0.64286  0.28571  0.35714  1.0000
  Ag  Ag7301    1.0  0.64286  0.32143  0.39286  1.0000
  Ag  Ag7302    1.0  0.67857  0.28571  0.39286  1.0000
  Ag  Ag7303    1.0  0.67857  0.32143  0.35714  1.0000
  Ag  Ag7304    1.0  0.64286  0.28571  0.42857  1.0000
  Ag  Ag7305    1.0  0.64286  0.32143  0.46429  1.0000
  Ag  Ag7306    1.0  0.67857  0.28571  0.46429  1.0000
  Ag  Ag7307    1.0  0.67857  0.32143  0.42857  1.0000
  Ag  Ag7308    1.0  0.64286  0.28571  0.50000  1.0000
  Ag  Ag7309    1.0  0.64286  0.32143  0.53571  1.0000
  Ag  Ag7310    1.0  0.67857  0.28571  0.53571  1.0000
  Ag  Ag7311    1.0  0.67857  0.32143  0.50000  1.0000
  Ag  Ag7312    1.0  0.64286  0.28571  0.57143  1.0000
  Ag  Ag7313    1.0  0.64286  0.32143  0.60714  1.0000
  Ag  Ag7314    1.0  0.67857  0.28571  0.60714  1.0000
  Ag  Ag7315    1.0  0.67857  0.32143  0.57143  1.0000
  Ag  Ag7316    1.0  0.64286  0.28571  0.64286  1.0000
  Ag  Ag7317    1.0  0.64286  0.32143  0.67857  1.0000
  Ag  Ag7318    1.0  0.67857  0.28571  0.67857  1.0000
  Ag  Ag7319    1.0  0.67857  0.32143  0.64286  1.0000
  Ag  Ag7320    1.0  0.64286  0.28571  0.71429  1.0000
  Ag  Ag7321    1.0  0.64286  0.32143  0.75000  1.0000
  Ag  Ag7322    1.0  0.67857  0.28571  0.75000  1.0000
  Ag  Ag7323    1.0  0.67857  0.32143  0.71429  1.0000
  Ag  Ag7324    1.0  0.64286  0.28571  0.78571  1.0000
  Ag  Ag7325    1.0  0.64286  0.32143  0.82143  1.0000
  Ag  Ag7326    1.0  0.67857  0.28571  0.82143  1.0000
  Ag  Ag7327    1.0  0.67857  0.32143  0.78571  1.0000
  Ag  Ag7328    1.0  0.64286  0.28571  0.85714  1.0000
  Ag  Ag7329    1.0  0.64286  0.32143  0.89286  1.0000
  Ag  Ag7330    1.0  0.67857  0.28571  0.89286  1.0000
  Ag  Ag7331    1.0  0.67857  0.32143  0.85714  1.0000
  Ag  Ag7332    1.0  0.64286  0.28571  0.92857  1.0000
  Ag  Ag7333    1.0  0.64286  0.32143  0.96429  1.0000
  Ag  Ag7334    1.0  0.67857  0.28571  0.96429  1.0000
  Ag  Ag7335    1.0  0.67857  0.32143  0.92857  1.0000
  Ag  Ag7336    1.0  0.64286  0.35714  0.00000  1.0000
  Ag  Ag7337    1.0  0.64286  0.39286  0.03571  1.0000
  Ag  Ag7338    1.0  0.67857  0.35714  0.03571  1.0000
  Ag  Ag7339    1.0  0.67857  0.39286  0.00000  1.0000
  Ag  Ag7340    1.0  0.64286  0.35714  0.07143  1.0000
  Ag  Ag7341    1.0  0.64286  0.39286  0.10714  1.0000
  Ag  Ag7342    1.0  0.67857  0.35714  0.10714  1.0000
  Ag  Ag7343    1.0  0.67857  0.39286  0.07143  1.0000
  Ag  Ag7344    1.0  0.64286  0.35714  0.14286  1.0000
  Ag  Ag7345    1.0  0.64286  0.39286  0.17857  1.0000
  Ag  Ag7346    1.0  0.67857  0.35714  0.17857  1.0000
  Ag  Ag7347    1.0  0.67857  0.39286  0.14286  1.0000
  Ag  Ag7348    1.0  0.64286  0.35714  0.21429  1.0000
  Ag  Ag7349    1.0  0.64286  0.39286  0.25000  1.0000
  Ag  Ag7350    1.0  0.67857  0.35714  0.25000  1.0000
  Ag  Ag7351    1.0  0.67857  0.39286  0.21429  1.0000
  Ag  Ag7352    1.0  0.64286  0.35714  0.28571  1.0000
  Ag  Ag7353    1.0  0.64286  0.39286  0.32143  1.0000
  Ag  Ag7354    1.0  0.67857  0.35714  0.32143  1.0000
  Ag  Ag7355    1.0  0.67857  0.39286  0.28571  1.0000
  Ag  Ag7356    1.0  0.64286  0.35714  0.35714  1.0000
  Ag  Ag7357    1.0  0.64286  0.39286  0.39286  1.0000
  Ag  Ag7358    1.0  0.67857  0.35714  0.39286  1.0000
  Ag  Ag7359    1.0  0.67857  0.39286  0.35714  1.0000
  Ag  Ag7360    1.0  0.64286  0.35714  0.42857  1.0000
  Ag  Ag7361    1.0  0.64286  0.39286  0.46429  1.0000
  Ag  Ag7362    1.0  0.67857  0.35714  0.46429  1.0000
  Ag  Ag7363    1.0  0.67857  0.39286  0.42857  1.0000
  Ag  Ag7364    1.0  0.64286  0.35714  0.50000  1.0000
  Ag  Ag7365    1.0  0.64286  0.39286  0.53571  1.0000
  Ag  Ag7366    1.0  0.67857  0.35714  0.53571  1.0000
  Ag  Ag7367    1.0  0.67857  0.39286  0.50000  1.0000
  Ag  Ag7368    1.0  0.64286  0.35714  0.57143  1.0000
  Ag  Ag7369    1.0  0.64286  0.39286  0.60714  1.0000
  Ag  Ag7370    1.0  0.67857  0.35714  0.60714  1.0000
  Ag  Ag7371    1.0  0.67857  0.39286  0.57143  1.0000
  Ag  Ag7372    1.0  0.64286  0.35714  0.64286  1.0000
  Ag  Ag7373    1.0  0.64286  0.39286  0.67857  1.0000
  Ag  Ag7374    1.0  0.67857  0.35714  0.67857  1.0000
  Ag  Ag7375    1.0  0.67857  0.39286  0.64286  1.0000
  Ag  Ag7376    1.0  0.64286  0.35714  0.71429  1.0000
  Ag  Ag7377    1.0  0.64286  0.39286  0.75000  1.0000
  Ag  Ag7378    1.0  0.67857  0.35714  0.75000  1.0000
  Ag  Ag7379    1.0  0.67857  0.39286  0.71429  1.0000
  Ag  Ag7380    1.0  0.64286  0.35714  0.78571  1.0000
  Ag  Ag7381    1.0  0.64286  0.39286  0.82143  1.0000
  Ag  Ag7382    1.0  0.67857  0.35714  0.82143  1.0000
  Ag  Ag7383    1.0  0.67857  0.39286  0.78571  1.0000
  Ag  Ag7384    1.0  0.64286  0.35714  0.85714  1.0000
  Ag  Ag7385    1.0  0.64286  0.39286  0.89286  1.0000
  Ag  Ag7386    1.0  0.67857  0.35714  0.89286  1.0000
  Ag  Ag7387    1.0  0.67857  0.39286  0.85714  1.0000
  Ag  Ag7388    1.0  0.64286  0.35714  0.92857  1.0000
  Ag  Ag7389    1.0  0.64286  0.39286  0.96429  1.0000
  Ag  Ag7390    1.0  0.67857  0.35714  0.96429  1.0000
  Ag  Ag7391    1.0  0.67857  0.39286  0.92857  1.0000
  Ag  Ag7392    1.0  0.64286  0.42857  0.00000  1.0000
  Ag  Ag7393    1.0  0.64286  0.46429  0.03571  1.0000
  Ag  Ag7394    1.0  0.67857  0.42857  0.03571  1.0000
  Ag  Ag7395    1.0  0.67857  0.46429  0.00000  1.0000
  Ag  Ag7396    1.0  0.64286  0.42857  0.07143  1.0000
  Ag  Ag7397    1.0  0.64286  0.46429  0.10714  1.0000
  Ag  Ag7398    1.0  0.67857  0.42857  0.10714  1.0000
  Ag  Ag7399    1.0  0.67857  0.46429  0.07143  1.0000
  Ag  Ag7400    1.0  0.64286  0.42857  0.14286  1.0000
  Ag  Ag7401    1.0  0.64286  0.46429  0.17857  1.0000
  Ag  Ag7402    1.0  0.67857  0.42857  0.17857  1.0000
  Ag  Ag7403    1.0  0.67857  0.46429  0.14286  1.0000
  Ag  Ag7404    1.0  0.64286  0.42857  0.21429  1.0000
  Ag  Ag7405    1.0  0.64286  0.46429  0.25000  1.0000
  Ag  Ag7406    1.0  0.67857  0.42857  0.25000  1.0000
  Ag  Ag7407    1.0  0.67857  0.46429  0.21429  1.0000
  Ag  Ag7408    1.0  0.64286  0.42857  0.28571  1.0000
  Ag  Ag7409    1.0  0.64286  0.46429  0.32143  1.0000
  Ag  Ag7410    1.0  0.67857  0.42857  0.32143  1.0000
  Ag  Ag7411    1.0  0.67857  0.46429  0.28571  1.0000
  Ag  Ag7412    1.0  0.64286  0.42857  0.35714  1.0000
  Ag  Ag7413    1.0  0.64286  0.46429  0.39286  1.0000
  Ag  Ag7414    1.0  0.67857  0.42857  0.39286  1.0000
  Ag  Ag7415    1.0  0.67857  0.46429  0.35714  1.0000
  Ag  Ag7416    1.0  0.64286  0.42857  0.42857  1.0000
  Ag  Ag7417    1.0  0.64286  0.46429  0.46429  1.0000
  Ag  Ag7418    1.0  0.67857  0.42857  0.46429  1.0000
  Ag  Ag7419    1.0  0.67857  0.46429  0.42857  1.0000
  Ag  Ag7420    1.0  0.64286  0.42857  0.50000  1.0000
  Ag  Ag7421    1.0  0.64286  0.46429  0.53571  1.0000
  Ag  Ag7422    1.0  0.67857  0.42857  0.53571  1.0000
  Ag  Ag7423    1.0  0.67857  0.46429  0.50000  1.0000
  Ag  Ag7424    1.0  0.64286  0.42857  0.57143  1.0000
  Ag  Ag7425    1.0  0.64286  0.46429  0.60714  1.0000
  Ag  Ag7426    1.0  0.67857  0.42857  0.60714  1.0000
  Ag  Ag7427    1.0  0.67857  0.46429  0.57143  1.0000
  Ag  Ag7428    1.0  0.64286  0.42857  0.64286  1.0000
  Ag  Ag7429    1.0  0.64286  0.46429  0.67857  1.0000
  Ag  Ag7430    1.0  0.67857  0.42857  0.67857  1.0000
  Ag  Ag7431    1.0  0.67857  0.46429  0.64286  1.0000
  Ag  Ag7432    1.0  0.64286  0.42857  0.71429  1.0000
  Ag  Ag7433    1.0  0.64286  0.46429  0.75000  1.0000
  Ag  Ag7434    1.0  0.67857  0.42857  0.75000  1.0000
  Ag  Ag7435    1.0  0.67857  0.46429  0.71429  1.0000
  Ag  Ag7436    1.0  0.64286  0.42857  0.78571  1.0000
  Ag  Ag7437    1.0  0.64286  0.46429  0.82143  1.0000
  Ag  Ag7438    1.0  0.67857  0.42857  0.82143  1.0000
  Ag  Ag7439    1.0  0.67857  0.46429  0.78571  1.0000
  Ag  Ag7440    1.0  0.64286  0.42857  0.85714  1.0000
  Ag  Ag7441    1.0  0.64286  0.46429  0.89286  1.0000
  Ag  Ag7442    1.0  0.67857  0.42857  0.89286  1.0000
  Ag  Ag7443    1.0  0.67857  0.46429  0.85714  1.0000
  Ag  Ag7444    1.0  0.64286  0.42857  0.92857  1.0000
  Ag  Ag7445    1.0  0.64286  0.46429  0.96429  1.0000
  Ag  Ag7446    1.0  0.67857  0.42857  0.96429  1.0000
  Ag  Ag7447    1.0  0.67857  0.46429  0.92857  1.0000
  Ag  Ag7448    1.0  0.64286  0.50000  0.00000  1.0000
  Ag  Ag7449    1.0  0.64286  0.53571  0.03571  1.0000
  Ag  Ag7450    1.0  0.67857  0.50000  0.03571  1.0000
  Ag  Ag7451    1.0  0.67857  0.53571  0.00000  1.0000
  Ag  Ag7452    1.0  0.64286  0.50000  0.07143  1.0000
  Ag  Ag7453    1.0  0.64286  0.53571  0.10714  1.0000
  Ag  Ag7454    1.0  0.67857  0.50000  0.10714  1.0000
  Ag  Ag7455    1.0  0.67857  0.53571  0.07143  1.0000
  Ag  Ag7456    1.0  0.64286  0.50000  0.14286  1.0000
  Ag  Ag7457    1.0  0.64286  0.53571  0.17857  1.0000
  Ag  Ag7458    1.0  0.67857  0.50000  0.17857  1.0000
  Ag  Ag7459    1.0  0.67857  0.53571  0.14286  1.0000
  Ag  Ag7460    1.0  0.64286  0.50000  0.21429  1.0000
  Ag  Ag7461    1.0  0.64286  0.53571  0.25000  1.0000
  Ag  Ag7462    1.0  0.67857  0.50000  0.25000  1.0000
  Ag  Ag7463    1.0  0.67857  0.53571  0.21429  1.0000
  Ag  Ag7464    1.0  0.64286  0.50000  0.28571  1.0000
  Ag  Ag7465    1.0  0.64286  0.53571  0.32143  1.0000
  Ag  Ag7466    1.0  0.67857  0.50000  0.32143  1.0000
  Ag  Ag7467    1.0  0.67857  0.53571  0.28571  1.0000
  Ag  Ag7468    1.0  0.64286  0.50000  0.35714  1.0000
  Ag  Ag7469    1.0  0.64286  0.53571  0.39286  1.0000
  Ag  Ag7470    1.0  0.67857  0.50000  0.39286  1.0000
  Ag  Ag7471    1.0  0.67857  0.53571  0.35714  1.0000
  Ag  Ag7472    1.0  0.64286  0.50000  0.42857  1.0000
  Ag  Ag7473    1.0  0.64286  0.53571  0.46429  1.0000
  Ag  Ag7474    1.0  0.67857  0.50000  0.46429  1.0000
  Ag  Ag7475    1.0  0.67857  0.53571  0.42857  1.0000
  Ag  Ag7476    1.0  0.64286  0.50000  0.50000  1.0000
  Ag  Ag7477    1.0  0.64286  0.53571  0.53571  1.0000
  Ag  Ag7478    1.0  0.67857  0.50000  0.53571  1.0000
  Ag  Ag7479    1.0  0.67857  0.53571  0.50000  1.0000
  Ag  Ag7480    1.0  0.64286  0.50000  0.57143  1.0000
  Ag  Ag7481    1.0  0.64286  0.53571  0.60714  1.0000
  Ag  Ag7482    1.0  0.67857  0.50000  0.60714  1.0000
  Ag  Ag7483    1.0  0.67857  0.53571  0.57143  1.0000
  Ag  Ag7484    1.0  0.64286  0.50000  0.64286  1.0000
  Ag  Ag7485    1.0  0.64286  0.53571  0.67857  1.0000
  Ag  Ag7486    1.0  0.67857  0.50000  0.67857  1.0000
  Ag  Ag7487    1.0  0.67857  0.53571  0.64286  1.0000
  Ag  Ag7488    1.0  0.64286  0.50000  0.71429  1.0000
  Ag  Ag7489    1.0  0.64286  0.53571  0.75000  1.0000
  Ag  Ag7490    1.0  0.67857  0.50000  0.75000  1.0000
  Ag  Ag7491    1.0  0.67857  0.53571  0.71429  1.0000
  Ag  Ag7492    1.0  0.64286  0.50000  0.78571  1.0000
  Ag  Ag7493    1.0  0.64286  0.53571  0.82143  1.0000
  Ag  Ag7494    1.0  0.67857  0.50000  0.82143  1.0000
  Ag  Ag7495    1.0  0.67857  0.53571  0.78571  1.0000
  Ag  Ag7496    1.0  0.64286  0.50000  0.85714  1.0000
  Ag  Ag7497    1.0  0.64286  0.53571  0.89286  1.0000
  Ag  Ag7498    1.0  0.67857  0.50000  0.89286  1.0000
  Ag  Ag7499    1.0  0.67857  0.53571  0.85714  1.0000
  Ag  Ag7500    1.0  0.64286  0.50000  0.92857  1.0000
  Ag  Ag7501    1.0  0.64286  0.53571  0.96429  1.0000
  Ag  Ag7502    1.0  0.67857  0.50000  0.96429  1.0000
  Ag  Ag7503    1.0  0.67857  0.53571  0.92857  1.0000
  Ag  Ag7504    1.0  0.64286  0.57143  0.00000  1.0000
  Ag  Ag7505    1.0  0.64286  0.60714  0.03571  1.0000
  Ag  Ag7506    1.0  0.67857  0.57143  0.03571  1.0000
  Ag  Ag7507    1.0  0.67857  0.60714  0.00000  1.0000
  Ag  Ag7508    1.0  0.64286  0.57143  0.07143  1.0000
  Ag  Ag7509    1.0  0.64286  0.60714  0.10714  1.0000
  Ag  Ag7510    1.0  0.67857  0.57143  0.10714  1.0000
  Ag  Ag7511    1.0  0.67857  0.60714  0.07143  1.0000
  Ag  Ag7512    1.0  0.64286  0.57143  0.14286  1.0000
  Ag  Ag7513    1.0  0.64286  0.60714  0.17857  1.0000
  Ag  Ag7514    1.0  0.67857  0.57143  0.17857  1.0000
  Ag  Ag7515    1.0  0.67857  0.60714  0.14286  1.0000
  Ag  Ag7516    1.0  0.64286  0.57143  0.21429  1.0000
  Ag  Ag7517    1.0  0.64286  0.60714  0.25000  1.0000
  Ag  Ag7518    1.0  0.67857  0.57143  0.25000  1.0000
  Ag  Ag7519    1.0  0.67857  0.60714  0.21429  1.0000
  Ag  Ag7520    1.0  0.64286  0.57143  0.28571  1.0000
  Ag  Ag7521    1.0  0.64286  0.60714  0.32143  1.0000
  Ag  Ag7522    1.0  0.67857  0.57143  0.32143  1.0000
  Ag  Ag7523    1.0  0.67857  0.60714  0.28571  1.0000
  Ag  Ag7524    1.0  0.64286  0.57143  0.35714  1.0000
  Ag  Ag7525    1.0  0.64286  0.60714  0.39286  1.0000
  Ag  Ag7526    1.0  0.67857  0.57143  0.39286  1.0000
  Ag  Ag7527    1.0  0.67857  0.60714  0.35714  1.0000
  Ag  Ag7528    1.0  0.64286  0.57143  0.42857  1.0000
  Ag  Ag7529    1.0  0.64286  0.60714  0.46429  1.0000
  Ag  Ag7530    1.0  0.67857  0.57143  0.46429  1.0000
  Ag  Ag7531    1.0  0.67857  0.60714  0.42857  1.0000
  Ag  Ag7532    1.0  0.64286  0.57143  0.50000  1.0000
  Ag  Ag7533    1.0  0.64286  0.60714  0.53571  1.0000
  Ag  Ag7534    1.0  0.67857  0.57143  0.53571  1.0000
  Ag  Ag7535    1.0  0.67857  0.60714  0.50000  1.0000
  Ag  Ag7536    1.0  0.64286  0.57143  0.57143  1.0000
  Ag  Ag7537    1.0  0.64286  0.60714  0.60714  1.0000
  Ag  Ag7538    1.0  0.67857  0.57143  0.60714  1.0000
  Ag  Ag7539    1.0  0.67857  0.60714  0.57143  1.0000
  Ag  Ag7540    1.0  0.64286  0.57143  0.64286  1.0000
  Ag  Ag7541    1.0  0.64286  0.60714  0.67857  1.0000
  Ag  Ag7542    1.0  0.67857  0.57143  0.67857  1.0000
  Ag  Ag7543    1.0  0.67857  0.60714  0.64286  1.0000
  Ag  Ag7544    1.0  0.64286  0.57143  0.71429  1.0000
  Ag  Ag7545    1.0  0.64286  0.60714  0.75000  1.0000
  Ag  Ag7546    1.0  0.67857  0.57143  0.75000  1.0000
  Ag  Ag7547    1.0  0.67857  0.60714  0.71429  1.0000
  Ag  Ag7548    1.0  0.64286  0.57143  0.78571  1.0000
  Ag  Ag7549    1.0  0.64286  0.60714  0.82143  1.0000
  Ag  Ag7550    1.0  0.67857  0.57143  0.82143  1.0000
  Ag  Ag7551    1.0  0.67857  0.60714  0.78571  1.0000
  Ag  Ag7552    1.0  0.64286  0.57143  0.85714  1.0000
  Ag  Ag7553    1.0  0.64286  0.60714  0.89286  1.0000
  Ag  Ag7554    1.0  0.67857  0.57143  0.89286  1.0000
  Ag  Ag7555    1.0  0.67857  0.60714  0.85714  1.0000
  Ag  Ag7556    1.0  0.64286  0.57143  0.92857  1.0000
  Ag  Ag7557    1.0  0.64286  0.60714  0.96429  1.0000
  Ag  Ag7558    1.0  0.67857  0.57143  0.96429  1.0000
  Ag  Ag7559    1.0  0.67857  0.60714  0.92857  1.0000
  Ag  Ag7560    1.0  0.64286  0.64286  0.00000  1.0000
  Ag  Ag7561    1.0  0.64286  0.67857  0.03571  1.0000
  Ag  Ag7562    1.0  0.67857  0.64286  0.03571  1.0000
  Ag  Ag7563    1.0  0.67857  0.67857  0.00000  1.0000
  Ag  Ag7564    1.0  0.64286  0.64286  0.07143  1.0000
  Ag  Ag7565    1.0  0.64286  0.67857  0.10714  1.0000
  Ag  Ag7566    1.0  0.67857  0.64286  0.10714  1.0000
  Ag  Ag7567    1.0  0.67857  0.67857  0.07143  1.0000
  Ag  Ag7568    1.0  0.64286  0.64286  0.14286  1.0000
  Ag  Ag7569    1.0  0.64286  0.67857  0.17857  1.0000
  Ag  Ag7570    1.0  0.67857  0.64286  0.17857  1.0000
  Ag  Ag7571    1.0  0.67857  0.67857  0.14286  1.0000
  Ag  Ag7572    1.0  0.64286  0.64286  0.21429  1.0000
  Ag  Ag7573    1.0  0.64286  0.67857  0.25000  1.0000
  Ag  Ag7574    1.0  0.67857  0.64286  0.25000  1.0000
  Ag  Ag7575    1.0  0.67857  0.67857  0.21429  1.0000
  Ag  Ag7576    1.0  0.64286  0.64286  0.28571  1.0000
  Ag  Ag7577    1.0  0.64286  0.67857  0.32143  1.0000
  Ag  Ag7578    1.0  0.67857  0.64286  0.32143  1.0000
  Ag  Ag7579    1.0  0.67857  0.67857  0.28571  1.0000
  Ag  Ag7580    1.0  0.64286  0.64286  0.35714  1.0000
  Ag  Ag7581    1.0  0.64286  0.67857  0.39286  1.0000
  Ag  Ag7582    1.0  0.67857  0.64286  0.39286  1.0000
  Ag  Ag7583    1.0  0.67857  0.67857  0.35714  1.0000
  Ag  Ag7584    1.0  0.64286  0.64286  0.42857  1.0000
  Ag  Ag7585    1.0  0.64286  0.67857  0.46429  1.0000
  Ag  Ag7586    1.0  0.67857  0.64286  0.46429  1.0000
  Ag  Ag7587    1.0  0.67857  0.67857  0.42857  1.0000
  Ag  Ag7588    1.0  0.64286  0.64286  0.50000  1.0000
  Ag  Ag7589    1.0  0.64286  0.67857  0.53571  1.0000
  Ag  Ag7590    1.0  0.67857  0.64286  0.53571  1.0000
  Ag  Ag7591    1.0  0.67857  0.67857  0.50000  1.0000
  Ag  Ag7592    1.0  0.64286  0.64286  0.57143  1.0000
  Ag  Ag7593    1.0  0.64286  0.67857  0.60714  1.0000
  Ag  Ag7594    1.0  0.67857  0.64286  0.60714  1.0000
  Ag  Ag7595    1.0  0.67857  0.67857  0.57143  1.0000
  Ag  Ag7596    1.0  0.64286  0.64286  0.64286  1.0000
  Ag  Ag7597    1.0  0.64286  0.67857  0.67857  1.0000
  Ag  Ag7598    1.0  0.67857  0.64286  0.67857  1.0000
  Ag  Ag7599    1.0  0.67857  0.67857  0.64286  1.0000
  Ag  Ag7600    1.0  0.64286  0.64286  0.71429  1.0000
  Ag  Ag7601    1.0  0.64286  0.67857  0.75000  1.0000
  Ag  Ag7602    1.0  0.67857  0.64286  0.75000  1.0000
  Ag  Ag7603    1.0  0.67857  0.67857  0.71429  1.0000
  Ag  Ag7604    1.0  0.64286  0.64286  0.78571  1.0000
  Ag  Ag7605    1.0  0.64286  0.67857  0.82143  1.0000
  Ag  Ag7606    1.0  0.67857  0.64286  0.82143  1.0000
  Ag  Ag7607    1.0  0.67857  0.67857  0.78571  1.0000
  Ag  Ag7608    1.0  0.64286  0.64286  0.85714  1.0000
  Ag  Ag7609    1.0  0.64286  0.67857  0.89286  1.0000
  Ag  Ag7610    1.0  0.67857  0.64286  0.89286  1.0000
  Ag  Ag7611    1.0  0.67857  0.67857  0.85714  1.0000
  Ag  Ag7612    1.0  0.64286  0.64286  0.92857  1.0000
  Ag  Ag7613    1.0  0.64286  0.67857  0.96429  1.0000
  Ag  Ag7614    1.0  0.67857  0.64286  0.96429  1.0000
  Ag  Ag7615    1.0  0.67857  0.67857  0.92857  1.0000
  Ag  Ag7616    1.0  0.64286  0.71429  0.00000  1.0000
  Ag  Ag7617    1.0  0.64286  0.75000  0.03571  1.0000
  Ag  Ag7618    1.0  0.67857  0.71429  0.03571  1.0000
  Ag  Ag7619    1.0  0.67857  0.75000  0.00000  1.0000
  Ag  Ag7620    1.0  0.64286  0.71429  0.07143  1.0000
  Ag  Ag7621    1.0  0.64286  0.75000  0.10714  1.0000
  Ag  Ag7622    1.0  0.67857  0.71429  0.10714  1.0000
  Ag  Ag7623    1.0  0.67857  0.75000  0.07143  1.0000
  Ag  Ag7624    1.0  0.64286  0.71429  0.14286  1.0000
  Ag  Ag7625    1.0  0.64286  0.75000  0.17857  1.0000
  Ag  Ag7626    1.0  0.67857  0.71429  0.17857  1.0000
  Ag  Ag7627    1.0  0.67857  0.75000  0.14286  1.0000
  Ag  Ag7628    1.0  0.64286  0.71429  0.21429  1.0000
  Ag  Ag7629    1.0  0.64286  0.75000  0.25000  1.0000
  Ag  Ag7630    1.0  0.67857  0.71429  0.25000  1.0000
  Ag  Ag7631    1.0  0.67857  0.75000  0.21429  1.0000
  Ag  Ag7632    1.0  0.64286  0.71429  0.28571  1.0000
  Ag  Ag7633    1.0  0.64286  0.75000  0.32143  1.0000
  Ag  Ag7634    1.0  0.67857  0.71429  0.32143  1.0000
  Ag  Ag7635    1.0  0.67857  0.75000  0.28571  1.0000
  Ag  Ag7636    1.0  0.64286  0.71429  0.35714  1.0000
  Ag  Ag7637    1.0  0.64286  0.75000  0.39286  1.0000
  Ag  Ag7638    1.0  0.67857  0.71429  0.39286  1.0000
  Ag  Ag7639    1.0  0.67857  0.75000  0.35714  1.0000
  Ag  Ag7640    1.0  0.64286  0.71429  0.42857  1.0000
  Ag  Ag7641    1.0  0.64286  0.75000  0.46429  1.0000
  Ag  Ag7642    1.0  0.67857  0.71429  0.46429  1.0000
  Ag  Ag7643    1.0  0.67857  0.75000  0.42857  1.0000
  Ag  Ag7644    1.0  0.64286  0.71429  0.50000  1.0000
  Ag  Ag7645    1.0  0.64286  0.75000  0.53571  1.0000
  Ag  Ag7646    1.0  0.67857  0.71429  0.53571  1.0000
  Ag  Ag7647    1.0  0.67857  0.75000  0.50000  1.0000
  Ag  Ag7648    1.0  0.64286  0.71429  0.57143  1.0000
  Ag  Ag7649    1.0  0.64286  0.75000  0.60714  1.0000
  Ag  Ag7650    1.0  0.67857  0.71429  0.60714  1.0000
  Ag  Ag7651    1.0  0.67857  0.75000  0.57143  1.0000
  Ag  Ag7652    1.0  0.64286  0.71429  0.64286  1.0000
  Ag  Ag7653    1.0  0.64286  0.75000  0.67857  1.0000
  Ag  Ag7654    1.0  0.67857  0.71429  0.67857  1.0000
  Ag  Ag7655    1.0  0.67857  0.75000  0.64286  1.0000
  Ag  Ag7656    1.0  0.64286  0.71429  0.71429  1.0000
  Ag  Ag7657    1.0  0.64286  0.75000  0.75000  1.0000
  Ag  Ag7658    1.0  0.67857  0.71429  0.75000  1.0000
  Ag  Ag7659    1.0  0.67857  0.75000  0.71429  1.0000
  Ag  Ag7660    1.0  0.64286  0.71429  0.78571  1.0000
  Ag  Ag7661    1.0  0.64286  0.75000  0.82143  1.0000
  Ag  Ag7662    1.0  0.67857  0.71429  0.82143  1.0000
  Ag  Ag7663    1.0  0.67857  0.75000  0.78571  1.0000
  Ag  Ag7664    1.0  0.64286  0.71429  0.85714  1.0000
  Ag  Ag7665    1.0  0.64286  0.75000  0.89286  1.0000
  Ag  Ag7666    1.0  0.67857  0.71429  0.89286  1.0000
  Ag  Ag7667    1.0  0.67857  0.75000  0.85714  1.0000
  Ag  Ag7668    1.0  0.64286  0.71429  0.92857  1.0000
  Ag  Ag7669    1.0  0.64286  0.75000  0.96429  1.0000
  Ag  Ag7670    1.0  0.67857  0.71429  0.96429  1.0000
  Ag  Ag7671    1.0  0.67857  0.75000  0.92857  1.0000
  Ag  Ag7672    1.0  0.64286  0.78571  0.00000  1.0000
  Ag  Ag7673    1.0  0.64286  0.82143  0.03571  1.0000
  Ag  Ag7674    1.0  0.67857  0.78571  0.03571  1.0000
  Ag  Ag7675    1.0  0.67857  0.82143  0.00000  1.0000
  Ag  Ag7676    1.0  0.64286  0.78571  0.07143  1.0000
  Ag  Ag7677    1.0  0.64286  0.82143  0.10714  1.0000
  Ag  Ag7678    1.0  0.67857  0.78571  0.10714  1.0000
  Ag  Ag7679    1.0  0.67857  0.82143  0.07143  1.0000
  Ag  Ag7680    1.0  0.64286  0.78571  0.14286  1.0000
  Ag  Ag7681    1.0  0.64286  0.82143  0.17857  1.0000
  Ag  Ag7682    1.0  0.67857  0.78571  0.17857  1.0000
  Ag  Ag7683    1.0  0.67857  0.82143  0.14286  1.0000
  Ag  Ag7684    1.0  0.64286  0.78571  0.21429  1.0000
  Ag  Ag7685    1.0  0.64286  0.82143  0.25000  1.0000
  Ag  Ag7686    1.0  0.67857  0.78571  0.25000  1.0000
  Ag  Ag7687    1.0  0.67857  0.82143  0.21429  1.0000
  Ag  Ag7688    1.0  0.64286  0.78571  0.28571  1.0000
  Ag  Ag7689    1.0  0.64286  0.82143  0.32143  1.0000
  Ag  Ag7690    1.0  0.67857  0.78571  0.32143  1.0000
  Ag  Ag7691    1.0  0.67857  0.82143  0.28571  1.0000
  Ag  Ag7692    1.0  0.64286  0.78571  0.35714  1.0000
  Ag  Ag7693    1.0  0.64286  0.82143  0.39286  1.0000
  Ag  Ag7694    1.0  0.67857  0.78571  0.39286  1.0000
  Ag  Ag7695    1.0  0.67857  0.82143  0.35714  1.0000
  Ag  Ag7696    1.0  0.64286  0.78571  0.42857  1.0000
  Ag  Ag7697    1.0  0.64286  0.82143  0.46429  1.0000
  Ag  Ag7698    1.0  0.67857  0.78571  0.46429  1.0000
  Ag  Ag7699    1.0  0.67857  0.82143  0.42857  1.0000
  Ag  Ag7700    1.0  0.64286  0.78571  0.50000  1.0000
  Ag  Ag7701    1.0  0.64286  0.82143  0.53571  1.0000
  Ag  Ag7702    1.0  0.67857  0.78571  0.53571  1.0000
  Ag  Ag7703    1.0  0.67857  0.82143  0.50000  1.0000
  Ag  Ag7704    1.0  0.64286  0.78571  0.57143  1.0000
  Ag  Ag7705    1.0  0.64286  0.82143  0.60714  1.0000
  Ag  Ag7706    1.0  0.67857  0.78571  0.60714  1.0000
  Ag  Ag7707    1.0  0.67857  0.82143  0.57143  1.0000
  Ag  Ag7708    1.0  0.64286  0.78571  0.64286  1.0000
  Ag  Ag7709    1.0  0.64286  0.82143  0.67857  1.0000
  Ag  Ag7710    1.0  0.67857  0.78571  0.67857  1.0000
  Ag  Ag7711    1.0  0.67857  0.82143  0.64286  1.0000
  Ag  Ag7712    1.0  0.64286  0.78571  0.71429  1.0000
  Ag  Ag7713    1.0  0.64286  0.82143  0.75000  1.0000
  Ag  Ag7714    1.0  0.67857  0.78571  0.75000  1.0000
  Ag  Ag7715    1.0  0.67857  0.82143  0.71429  1.0000
  Ag  Ag7716    1.0  0.64286  0.78571  0.78571  1.0000
  Ag  Ag7717    1.0  0.64286  0.82143  0.82143  1.0000
  Ag  Ag7718    1.0  0.67857  0.78571  0.82143  1.0000
  Ag  Ag7719    1.0  0.67857  0.82143  0.78571  1.0000
  Ag  Ag7720    1.0  0.64286  0.78571  0.85714  1.0000
  Ag  Ag7721    1.0  0.64286  0.82143  0.89286  1.0000
  Ag  Ag7722    1.0  0.67857  0.78571  0.89286  1.0000
  Ag  Ag7723    1.0  0.67857  0.82143  0.85714  1.0000
  Ag  Ag7724    1.0  0.64286  0.78571  0.92857  1.0000
  Ag  Ag7725    1.0  0.64286  0.82143  0.96429  1.0000
  Ag  Ag7726    1.0  0.67857  0.78571  0.96429  1.0000
  Ag  Ag7727    1.0  0.67857  0.82143  0.92857  1.0000
  Ag  Ag7728    1.0  0.64286  0.85714  0.00000  1.0000
  Ag  Ag7729    1.0  0.64286  0.89286  0.03571  1.0000
  Ag  Ag7730    1.0  0.67857  0.85714  0.03571  1.0000
  Ag  Ag7731    1.0  0.67857  0.89286  0.00000  1.0000
  Ag  Ag7732    1.0  0.64286  0.85714  0.07143  1.0000
  Ag  Ag7733    1.0  0.64286  0.89286  0.10714  1.0000
  Ag  Ag7734    1.0  0.67857  0.85714  0.10714  1.0000
  Ag  Ag7735    1.0  0.67857  0.89286  0.07143  1.0000
  Ag  Ag7736    1.0  0.64286  0.85714  0.14286  1.0000
  Ag  Ag7737    1.0  0.64286  0.89286  0.17857  1.0000
  Ag  Ag7738    1.0  0.67857  0.85714  0.17857  1.0000
  Ag  Ag7739    1.0  0.67857  0.89286  0.14286  1.0000
  Ag  Ag7740    1.0  0.64286  0.85714  0.21429  1.0000
  Ag  Ag7741    1.0  0.64286  0.89286  0.25000  1.0000
  Ag  Ag7742    1.0  0.67857  0.85714  0.25000  1.0000
  Ag  Ag7743    1.0  0.67857  0.89286  0.21429  1.0000
  Ag  Ag7744    1.0  0.64286  0.85714  0.28571  1.0000
  Ag  Ag7745    1.0  0.64286  0.89286  0.32143  1.0000
  Ag  Ag7746    1.0  0.67857  0.85714  0.32143  1.0000
  Ag  Ag7747    1.0  0.67857  0.89286  0.28571  1.0000
  Ag  Ag7748    1.0  0.64286  0.85714  0.35714  1.0000
  Ag  Ag7749    1.0  0.64286  0.89286  0.39286  1.0000
  Ag  Ag7750    1.0  0.67857  0.85714  0.39286  1.0000
  Ag  Ag7751    1.0  0.67857  0.89286  0.35714  1.0000
  Ag  Ag7752    1.0  0.64286  0.85714  0.42857  1.0000
  Ag  Ag7753    1.0  0.64286  0.89286  0.46429  1.0000
  Ag  Ag7754    1.0  0.67857  0.85714  0.46429  1.0000
  Ag  Ag7755    1.0  0.67857  0.89286  0.42857  1.0000
  Ag  Ag7756    1.0  0.64286  0.85714  0.50000  1.0000
  Ag  Ag7757    1.0  0.64286  0.89286  0.53571  1.0000
  Ag  Ag7758    1.0  0.67857  0.85714  0.53571  1.0000
  Ag  Ag7759    1.0  0.67857  0.89286  0.50000  1.0000
  Ag  Ag7760    1.0  0.64286  0.85714  0.57143  1.0000
  Ag  Ag7761    1.0  0.64286  0.89286  0.60714  1.0000
  Ag  Ag7762    1.0  0.67857  0.85714  0.60714  1.0000
  Ag  Ag7763    1.0  0.67857  0.89286  0.57143  1.0000
  Ag  Ag7764    1.0  0.64286  0.85714  0.64286  1.0000
  Ag  Ag7765    1.0  0.64286  0.89286  0.67857  1.0000
  Ag  Ag7766    1.0  0.67857  0.85714  0.67857  1.0000
  Ag  Ag7767    1.0  0.67857  0.89286  0.64286  1.0000
  Ag  Ag7768    1.0  0.64286  0.85714  0.71429  1.0000
  Ag  Ag7769    1.0  0.64286  0.89286  0.75000  1.0000
  Ag  Ag7770    1.0  0.67857  0.85714  0.75000  1.0000
  Ag  Ag7771    1.0  0.67857  0.89286  0.71429  1.0000
  Ag  Ag7772    1.0  0.64286  0.85714  0.78571  1.0000
  Ag  Ag7773    1.0  0.64286  0.89286  0.82143  1.0000
  Ag  Ag7774    1.0  0.67857  0.85714  0.82143  1.0000
  Ag  Ag7775    1.0  0.67857  0.89286  0.78571  1.0000
  Ag  Ag7776    1.0  0.64286  0.85714  0.85714  1.0000
  Ag  Ag7777    1.0  0.64286  0.89286  0.89286  1.0000
  Ag  Ag7778    1.0  0.67857  0.85714  0.89286  1.0000
  Ag  Ag7779    1.0  0.67857  0.89286  0.85714  1.0000
  Ag  Ag7780    1.0  0.64286  0.85714  0.92857  1.0000
  Ag  Ag7781    1.0  0.64286  0.89286  0.96429  1.0000
  Ag  Ag7782    1.0  0.67857  0.85714  0.96429  1.0000
  Ag  Ag7783    1.0  0.67857  0.89286  0.92857  1.0000
  Ag  Ag7784    1.0  0.64286  0.92857  0.00000  1.0000
  Ag  Ag7785    1.0  0.64286  0.96429  0.03571  1.0000
  Ag  Ag7786    1.0  0.67857  0.92857  0.03571  1.0000
  Ag  Ag7787    1.0  0.67857  0.96429  0.00000  1.0000
  Ag  Ag7788    1.0  0.64286  0.92857  0.07143  1.0000
  Ag  Ag7789    1.0  0.64286  0.96429  0.10714  1.0000
  Ag  Ag7790    1.0  0.67857  0.92857  0.10714  1.0000
  Ag  Ag7791    1.0  0.67857  0.96429  0.07143  1.0000
  Ag  Ag7792    1.0  0.64286  0.92857  0.14286  1.0000
  Ag  Ag7793    1.0  0.64286  0.96429  0.17857  1.0000
  Ag  Ag7794    1.0  0.67857  0.92857  0.17857  1.0000
  Ag  Ag7795    1.0  0.67857  0.96429  0.14286  1.0000
  Ag  Ag7796    1.0  0.64286  0.92857  0.21429  1.0000
  Ag  Ag7797    1.0  0.64286  0.96429  0.25000  1.0000
  Ag  Ag7798    1.0  0.67857  0.92857  0.25000  1.0000
  Ag  Ag7799    1.0  0.67857  0.96429  0.21429  1.0000
  Ag  Ag7800    1.0  0.64286  0.92857  0.28571  1.0000
  Ag  Ag7801    1.0  0.64286  0.96429  0.32143  1.0000
  Ag  Ag7802    1.0  0.67857  0.92857  0.32143  1.0000
  Ag  Ag7803    1.0  0.67857  0.96429  0.28571  1.0000
  Ag  Ag7804    1.0  0.64286  0.92857  0.35714  1.0000
  Ag  Ag7805    1.0  0.64286  0.96429  0.39286  1.0000
  Ag  Ag7806    1.0  0.67857  0.92857  0.39286  1.0000
  Ag  Ag7807    1.0  0.67857  0.96429  0.35714  1.0000
  Ag  Ag7808    1.0  0.64286  0.92857  0.42857  1.0000
  Ag  Ag7809    1.0  0.64286  0.96429  0.46429  1.0000
  Ag  Ag7810    1.0  0.67857  0.92857  0.46429  1.0000
  Ag  Ag7811    1.0  0.67857  0.96429  0.42857  1.0000
  Ag  Ag7812    1.0  0.64286  0.92857  0.50000  1.0000
  Ag  Ag7813    1.0  0.64286  0.96429  0.53571  1.0000
  Ag  Ag7814    1.0  0.67857  0.92857  0.53571  1.0000
  Ag  Ag7815    1.0  0.67857  0.96429  0.50000  1.0000
  Ag  Ag7816    1.0  0.64286  0.92857  0.57143  1.0000
  Ag  Ag7817    1.0  0.64286  0.96429  0.60714  1.0000
  Ag  Ag7818    1.0  0.67857  0.92857  0.60714  1.0000
  Ag  Ag7819    1.0  0.67857  0.96429  0.57143  1.0000
  Ag  Ag7820    1.0  0.64286  0.92857  0.64286  1.0000
  Ag  Ag7821    1.0  0.64286  0.96429  0.67857  1.0000
  Ag  Ag7822    1.0  0.67857  0.92857  0.67857  1.0000
  Ag  Ag7823    1.0  0.67857  0.96429  0.64286  1.0000
  Ag  Ag7824    1.0  0.64286  0.92857  0.71429  1.0000
  Ag  Ag7825    1.0  0.64286  0.96429  0.75000  1.0000
  Ag  Ag7826    1.0  0.67857  0.92857  0.75000  1.0000
  Ag  Ag7827    1.0  0.67857  0.96429  0.71429  1.0000
  Ag  Ag7828    1.0  0.64286  0.92857  0.78571  1.0000
  Ag  Ag7829    1.0  0.64286  0.96429  0.82143  1.0000
  Ag  Ag7830    1.0  0.67857  0.92857  0.82143  1.0000
  Ag  Ag7831    1.0  0.67857  0.96429  0.78571  1.0000
  Ag  Ag7832    1.0  0.64286  0.92857  0.85714  1.0000
  Ag  Ag7833    1.0  0.64286  0.96429  0.89286  1.0000
  Ag  Ag7834    1.0  0.67857  0.92857  0.89286  1.0000
  Ag  Ag7835    1.0  0.67857  0.96429  0.85714  1.0000
  Ag  Ag7836    1.0  0.64286  0.92857  0.92857  1.0000
  Ag  Ag7837    1.0  0.64286  0.96429  0.96429  1.0000
  Ag  Ag7838    1.0  0.67857  0.92857  0.96429  1.0000
  Ag  Ag7839    1.0  0.67857  0.96429  0.92857  1.0000
  Ag  Ag7840    1.0  0.71429  0.00000  0.00000  1.0000
  Ag  Ag7841    1.0  0.71429  0.03571  0.03571  1.0000
  Ag  Ag7842    1.0  0.75000  0.00000  0.03571  1.0000
  Ag  Ag7843    1.0  0.75000  0.03571  0.00000  1.0000
  Ag  Ag7844    1.0  0.71429  0.00000  0.07143  1.0000
  Ag  Ag7845    1.0  0.71429  0.03571  0.10714  1.0000
  Ag  Ag7846    1.0  0.75000  0.00000  0.10714  1.0000
  Ag  Ag7847    1.0  0.75000  0.03571  0.07143  1.0000
  Ag  Ag7848    1.0  0.71429  0.00000  0.14286  1.0000
  Ag  Ag7849    1.0  0.71429  0.03571  0.17857  1.0000
  Ag  Ag7850    1.0  0.75000  0.00000  0.17857  1.0000
  Ag  Ag7851    1.0  0.75000  0.03571  0.14286  1.0000
  Ag  Ag7852    1.0  0.71429  0.00000  0.21429  1.0000
  Ag  Ag7853    1.0  0.71429  0.03571  0.25000  1.0000
  Ag  Ag7854    1.0  0.75000  0.00000  0.25000  1.0000
  Ag  Ag7855    1.0  0.75000  0.03571  0.21429  1.0000
  Ag  Ag7856    1.0  0.71429  0.00000  0.28571  1.0000
  Ag  Ag7857    1.0  0.71429  0.03571  0.32143  1.0000
  Ag  Ag7858    1.0  0.75000  0.00000  0.32143  1.0000
  Ag  Ag7859    1.0  0.75000  0.03571  0.28571  1.0000
  Ag  Ag7860    1.0  0.71429  0.00000  0.35714  1.0000
  Ag  Ag7861    1.0  0.71429  0.03571  0.39286  1.0000
  Ag  Ag7862    1.0  0.75000  0.00000  0.39286  1.0000
  Ag  Ag7863    1.0  0.75000  0.03571  0.35714  1.0000
  Ag  Ag7864    1.0  0.71429  0.00000  0.42857  1.0000
  Ag  Ag7865    1.0  0.71429  0.03571  0.46429  1.0000
  Ag  Ag7866    1.0  0.75000  0.00000  0.46429  1.0000
  Ag  Ag7867    1.0  0.75000  0.03571  0.42857  1.0000
  Ag  Ag7868    1.0  0.71429  0.00000  0.50000  1.0000
  Ag  Ag7869    1.0  0.71429  0.03571  0.53571  1.0000
  Ag  Ag7870    1.0  0.75000  0.00000  0.53571  1.0000
  Ag  Ag7871    1.0  0.75000  0.03571  0.50000  1.0000
  Ag  Ag7872    1.0  0.71429  0.00000  0.57143  1.0000
  Ag  Ag7873    1.0  0.71429  0.03571  0.60714  1.0000
  Ag  Ag7874    1.0  0.75000  0.00000  0.60714  1.0000
  Ag  Ag7875    1.0  0.75000  0.03571  0.57143  1.0000
  Ag  Ag7876    1.0  0.71429  0.00000  0.64286  1.0000
  Ag  Ag7877    1.0  0.71429  0.03571  0.67857  1.0000
  Ag  Ag7878    1.0  0.75000  0.00000  0.67857  1.0000
  Ag  Ag7879    1.0  0.75000  0.03571  0.64286  1.0000
  Ag  Ag7880    1.0  0.71429  0.00000  0.71429  1.0000
  Ag  Ag7881    1.0  0.71429  0.03571  0.75000  1.0000
  Ag  Ag7882    1.0  0.75000  0.00000  0.75000  1.0000
  Ag  Ag7883    1.0  0.75000  0.03571  0.71429  1.0000
  Ag  Ag7884    1.0  0.71429  0.00000  0.78571  1.0000
  Ag  Ag7885    1.0  0.71429  0.03571  0.82143  1.0000
  Ag  Ag7886    1.0  0.75000  0.00000  0.82143  1.0000
  Ag  Ag7887    1.0  0.75000  0.03571  0.78571  1.0000
  Ag  Ag7888    1.0  0.71429  0.00000  0.85714  1.0000
  Ag  Ag7889    1.0  0.71429  0.03571  0.89286  1.0000
  Ag  Ag7890    1.0  0.75000  0.00000  0.89286  1.0000
  Ag  Ag7891    1.0  0.75000  0.03571  0.85714  1.0000
  Ag  Ag7892    1.0  0.71429  0.00000  0.92857  1.0000
  Ag  Ag7893    1.0  0.71429  0.03571  0.96429  1.0000
  Ag  Ag7894    1.0  0.75000  0.00000  0.96429  1.0000
  Ag  Ag7895    1.0  0.75000  0.03571  0.92857  1.0000
  Ag  Ag7896    1.0  0.71429  0.07143  0.00000  1.0000
  Ag  Ag7897    1.0  0.71429  0.10714  0.03571  1.0000
  Ag  Ag7898    1.0  0.75000  0.07143  0.03571  1.0000
  Ag  Ag7899    1.0  0.75000  0.10714  0.00000  1.0000
  Ag  Ag7900    1.0  0.71429  0.07143  0.07143  1.0000
  Ag  Ag7901    1.0  0.71429  0.10714  0.10714  1.0000
  Ag  Ag7902    1.0  0.75000  0.07143  0.10714  1.0000
  Ag  Ag7903    1.0  0.75000  0.10714  0.07143  1.0000
  Ag  Ag7904    1.0  0.71429  0.07143  0.14286  1.0000
  Ag  Ag7905    1.0  0.71429  0.10714  0.17857  1.0000
  Ag  Ag7906    1.0  0.75000  0.07143  0.17857  1.0000
  Ag  Ag7907    1.0  0.75000  0.10714  0.14286  1.0000
  Ag  Ag7908    1.0  0.71429  0.07143  0.21429  1.0000
  Ag  Ag7909    1.0  0.71429  0.10714  0.25000  1.0000
  Ag  Ag7910    1.0  0.75000  0.07143  0.25000  1.0000
  Ag  Ag7911    1.0  0.75000  0.10714  0.21429  1.0000
  Ag  Ag7912    1.0  0.71429  0.07143  0.28571  1.0000
  Ag  Ag7913    1.0  0.71429  0.10714  0.32143  1.0000
  Ag  Ag7914    1.0  0.75000  0.07143  0.32143  1.0000
  Ag  Ag7915    1.0  0.75000  0.10714  0.28571  1.0000
  Ag  Ag7916    1.0  0.71429  0.07143  0.35714  1.0000
  Ag  Ag7917    1.0  0.71429  0.10714  0.39286  1.0000
  Ag  Ag7918    1.0  0.75000  0.07143  0.39286  1.0000
  Ag  Ag7919    1.0  0.75000  0.10714  0.35714  1.0000
  Ag  Ag7920    1.0  0.71429  0.07143  0.42857  1.0000
  Ag  Ag7921    1.0  0.71429  0.10714  0.46429  1.0000
  Ag  Ag7922    1.0  0.75000  0.07143  0.46429  1.0000
  Ag  Ag7923    1.0  0.75000  0.10714  0.42857  1.0000
  Ag  Ag7924    1.0  0.71429  0.07143  0.50000  1.0000
  Ag  Ag7925    1.0  0.71429  0.10714  0.53571  1.0000
  Ag  Ag7926    1.0  0.75000  0.07143  0.53571  1.0000
  Ag  Ag7927    1.0  0.75000  0.10714  0.50000  1.0000
  Ag  Ag7928    1.0  0.71429  0.07143  0.57143  1.0000
  Ag  Ag7929    1.0  0.71429  0.10714  0.60714  1.0000
  Ag  Ag7930    1.0  0.75000  0.07143  0.60714  1.0000
  Ag  Ag7931    1.0  0.75000  0.10714  0.57143  1.0000
  Ag  Ag7932    1.0  0.71429  0.07143  0.64286  1.0000
  Ag  Ag7933    1.0  0.71429  0.10714  0.67857  1.0000
  Ag  Ag7934    1.0  0.75000  0.07143  0.67857  1.0000
  Ag  Ag7935    1.0  0.75000  0.10714  0.64286  1.0000
  Ag  Ag7936    1.0  0.71429  0.07143  0.71429  1.0000
  Ag  Ag7937    1.0  0.71429  0.10714  0.75000  1.0000
  Ag  Ag7938    1.0  0.75000  0.07143  0.75000  1.0000
  Ag  Ag7939    1.0  0.75000  0.10714  0.71429  1.0000
  Ag  Ag7940    1.0  0.71429  0.07143  0.78571  1.0000
  Ag  Ag7941    1.0  0.71429  0.10714  0.82143  1.0000
  Ag  Ag7942    1.0  0.75000  0.07143  0.82143  1.0000
  Ag  Ag7943    1.0  0.75000  0.10714  0.78571  1.0000
  Ag  Ag7944    1.0  0.71429  0.07143  0.85714  1.0000
  Ag  Ag7945    1.0  0.71429  0.10714  0.89286  1.0000
  Ag  Ag7946    1.0  0.75000  0.07143  0.89286  1.0000
  Ag  Ag7947    1.0  0.75000  0.10714  0.85714  1.0000
  Ag  Ag7948    1.0  0.71429  0.07143  0.92857  1.0000
  Ag  Ag7949    1.0  0.71429  0.10714  0.96429  1.0000
  Ag  Ag7950    1.0  0.75000  0.07143  0.96429  1.0000
  Ag  Ag7951    1.0  0.75000  0.10714  0.92857  1.0000
  Ag  Ag7952    1.0  0.71429  0.14286  0.00000  1.0000
  Ag  Ag7953    1.0  0.71429  0.17857  0.03571  1.0000
  Ag  Ag7954    1.0  0.75000  0.14286  0.03571  1.0000
  Ag  Ag7955    1.0  0.75000  0.17857  0.00000  1.0000
  Ag  Ag7956    1.0  0.71429  0.14286  0.07143  1.0000
  Ag  Ag7957    1.0  0.71429  0.17857  0.10714  1.0000
  Ag  Ag7958    1.0  0.75000  0.14286  0.10714  1.0000
  Ag  Ag7959    1.0  0.75000  0.17857  0.07143  1.0000
  Ag  Ag7960    1.0  0.71429  0.14286  0.14286  1.0000
  Ag  Ag7961    1.0  0.71429  0.17857  0.17857  1.0000
  Ag  Ag7962    1.0  0.75000  0.14286  0.17857  1.0000
  Ag  Ag7963    1.0  0.75000  0.17857  0.14286  1.0000
  Ag  Ag7964    1.0  0.71429  0.14286  0.21429  1.0000
  Ag  Ag7965    1.0  0.71429  0.17857  0.25000  1.0000
  Ag  Ag7966    1.0  0.75000  0.14286  0.25000  1.0000
  Ag  Ag7967    1.0  0.75000  0.17857  0.21429  1.0000
  Ag  Ag7968    1.0  0.71429  0.14286  0.28571  1.0000
  Ag  Ag7969    1.0  0.71429  0.17857  0.32143  1.0000
  Ag  Ag7970    1.0  0.75000  0.14286  0.32143  1.0000
  Ag  Ag7971    1.0  0.75000  0.17857  0.28571  1.0000
  Ag  Ag7972    1.0  0.71429  0.14286  0.35714  1.0000
  Ag  Ag7973    1.0  0.71429  0.17857  0.39286  1.0000
  Ag  Ag7974    1.0  0.75000  0.14286  0.39286  1.0000
  Ag  Ag7975    1.0  0.75000  0.17857  0.35714  1.0000
  Ag  Ag7976    1.0  0.71429  0.14286  0.42857  1.0000
  Ag  Ag7977    1.0  0.71429  0.17857  0.46429  1.0000
  Ag  Ag7978    1.0  0.75000  0.14286  0.46429  1.0000
  Ag  Ag7979    1.0  0.75000  0.17857  0.42857  1.0000
  Ag  Ag7980    1.0  0.71429  0.14286  0.50000  1.0000
  Ag  Ag7981    1.0  0.71429  0.17857  0.53571  1.0000
  Ag  Ag7982    1.0  0.75000  0.14286  0.53571  1.0000
  Ag  Ag7983    1.0  0.75000  0.17857  0.50000  1.0000
  Ag  Ag7984    1.0  0.71429  0.14286  0.57143  1.0000
  Ag  Ag7985    1.0  0.71429  0.17857  0.60714  1.0000
  Ag  Ag7986    1.0  0.75000  0.14286  0.60714  1.0000
  Ag  Ag7987    1.0  0.75000  0.17857  0.57143  1.0000
  Ag  Ag7988    1.0  0.71429  0.14286  0.64286  1.0000
  Ag  Ag7989    1.0  0.71429  0.17857  0.67857  1.0000
  Ag  Ag7990    1.0  0.75000  0.14286  0.67857  1.0000
  Ag  Ag7991    1.0  0.75000  0.17857  0.64286  1.0000
  Ag  Ag7992    1.0  0.71429  0.14286  0.71429  1.0000
  Ag  Ag7993    1.0  0.71429  0.17857  0.75000  1.0000
  Ag  Ag7994    1.0  0.75000  0.14286  0.75000  1.0000
  Ag  Ag7995    1.0  0.75000  0.17857  0.71429  1.0000
  Ag  Ag7996    1.0  0.71429  0.14286  0.78571  1.0000
  Ag  Ag7997    1.0  0.71429  0.17857  0.82143  1.0000
  Ag  Ag7998    1.0  0.75000  0.14286  0.82143  1.0000
  Ag  Ag7999    1.0  0.75000  0.17857  0.78571  1.0000
  Ag  Ag8000    1.0  0.71429  0.14286  0.85714  1.0000
  Ag  Ag8001    1.0  0.71429  0.17857  0.89286  1.0000
  Ag  Ag8002    1.0  0.75000  0.14286  0.89286  1.0000
  Ag  Ag8003    1.0  0.75000  0.17857  0.85714  1.0000
  Ag  Ag8004    1.0  0.71429  0.14286  0.92857  1.0000
  Ag  Ag8005    1.0  0.71429  0.17857  0.96429  1.0000
  Ag  Ag8006    1.0  0.75000  0.14286  0.96429  1.0000
  Ag  Ag8007    1.0  0.75000  0.17857  0.92857  1.0000
  Ag  Ag8008    1.0  0.71429  0.21429  0.00000  1.0000
  Ag  Ag8009    1.0  0.71429  0.25000  0.03571  1.0000
  Ag  Ag8010    1.0  0.75000  0.21429  0.03571  1.0000
  Ag  Ag8011    1.0  0.75000  0.25000  0.00000  1.0000
  Ag  Ag8012    1.0  0.71429  0.21429  0.07143  1.0000
  Ag  Ag8013    1.0  0.71429  0.25000  0.10714  1.0000
  Ag  Ag8014    1.0  0.75000  0.21429  0.10714  1.0000
  Ag  Ag8015    1.0  0.75000  0.25000  0.07143  1.0000
  Ag  Ag8016    1.0  0.71429  0.21429  0.14286  1.0000
  Ag  Ag8017    1.0  0.71429  0.25000  0.17857  1.0000
  Ag  Ag8018    1.0  0.75000  0.21429  0.17857  1.0000
  Ag  Ag8019    1.0  0.75000  0.25000  0.14286  1.0000
  Ag  Ag8020    1.0  0.71429  0.21429  0.21429  1.0000
  Ag  Ag8021    1.0  0.71429  0.25000  0.25000  1.0000
  Ag  Ag8022    1.0  0.75000  0.21429  0.25000  1.0000
  Ag  Ag8023    1.0  0.75000  0.25000  0.21429  1.0000
  Ag  Ag8024    1.0  0.71429  0.21429  0.28571  1.0000
  Ag  Ag8025    1.0  0.71429  0.25000  0.32143  1.0000
  Ag  Ag8026    1.0  0.75000  0.21429  0.32143  1.0000
  Ag  Ag8027    1.0  0.75000  0.25000  0.28571  1.0000
  Ag  Ag8028    1.0  0.71429  0.21429  0.35714  1.0000
  Ag  Ag8029    1.0  0.71429  0.25000  0.39286  1.0000
  Ag  Ag8030    1.0  0.75000  0.21429  0.39286  1.0000
  Ag  Ag8031    1.0  0.75000  0.25000  0.35714  1.0000
  Ag  Ag8032    1.0  0.71429  0.21429  0.42857  1.0000
  Ag  Ag8033    1.0  0.71429  0.25000  0.46429  1.0000
  Ag  Ag8034    1.0  0.75000  0.21429  0.46429  1.0000
  Ag  Ag8035    1.0  0.75000  0.25000  0.42857  1.0000
  Ag  Ag8036    1.0  0.71429  0.21429  0.50000  1.0000
  Ag  Ag8037    1.0  0.71429  0.25000  0.53571  1.0000
  Ag  Ag8038    1.0  0.75000  0.21429  0.53571  1.0000
  Ag  Ag8039    1.0  0.75000  0.25000  0.50000  1.0000
  Ag  Ag8040    1.0  0.71429  0.21429  0.57143  1.0000
  Ag  Ag8041    1.0  0.71429  0.25000  0.60714  1.0000
  Ag  Ag8042    1.0  0.75000  0.21429  0.60714  1.0000
  Ag  Ag8043    1.0  0.75000  0.25000  0.57143  1.0000
  Ag  Ag8044    1.0  0.71429  0.21429  0.64286  1.0000
  Ag  Ag8045    1.0  0.71429  0.25000  0.67857  1.0000
  Ag  Ag8046    1.0  0.75000  0.21429  0.67857  1.0000
  Ag  Ag8047    1.0  0.75000  0.25000  0.64286  1.0000
  Ag  Ag8048    1.0  0.71429  0.21429  0.71429  1.0000
  Ag  Ag8049    1.0  0.71429  0.25000  0.75000  1.0000
  Ag  Ag8050    1.0  0.75000  0.21429  0.75000  1.0000
  Ag  Ag8051    1.0  0.75000  0.25000  0.71429  1.0000
  Ag  Ag8052    1.0  0.71429  0.21429  0.78571  1.0000
  Ag  Ag8053    1.0  0.71429  0.25000  0.82143  1.0000
  Ag  Ag8054    1.0  0.75000  0.21429  0.82143  1.0000
  Ag  Ag8055    1.0  0.75000  0.25000  0.78571  1.0000
  Ag  Ag8056    1.0  0.71429  0.21429  0.85714  1.0000
  Ag  Ag8057    1.0  0.71429  0.25000  0.89286  1.0000
  Ag  Ag8058    1.0  0.75000  0.21429  0.89286  1.0000
  Ag  Ag8059    1.0  0.75000  0.25000  0.85714  1.0000
  Ag  Ag8060    1.0  0.71429  0.21429  0.92857  1.0000
  Ag  Ag8061    1.0  0.71429  0.25000  0.96429  1.0000
  Ag  Ag8062    1.0  0.75000  0.21429  0.96429  1.0000
  Ag  Ag8063    1.0  0.75000  0.25000  0.92857  1.0000
  Ag  Ag8064    1.0  0.71429  0.28571  0.00000  1.0000
  Ag  Ag8065    1.0  0.71429  0.32143  0.03571  1.0000
  Ag  Ag8066    1.0  0.75000  0.28571  0.03571  1.0000
  Ag  Ag8067    1.0  0.75000  0.32143  0.00000  1.0000
  Ag  Ag8068    1.0  0.71429  0.28571  0.07143  1.0000
  Ag  Ag8069    1.0  0.71429  0.32143  0.10714  1.0000
  Ag  Ag8070    1.0  0.75000  0.28571  0.10714  1.0000
  Ag  Ag8071    1.0  0.75000  0.32143  0.07143  1.0000
  Ag  Ag8072    1.0  0.71429  0.28571  0.14286  1.0000
  Ag  Ag8073    1.0  0.71429  0.32143  0.17857  1.0000
  Ag  Ag8074    1.0  0.75000  0.28571  0.17857  1.0000
  Ag  Ag8075    1.0  0.75000  0.32143  0.14286  1.0000
  Ag  Ag8076    1.0  0.71429  0.28571  0.21429  1.0000
  Ag  Ag8077    1.0  0.71429  0.32143  0.25000  1.0000
  Ag  Ag8078    1.0  0.75000  0.28571  0.25000  1.0000
  Ag  Ag8079    1.0  0.75000  0.32143  0.21429  1.0000
  Ag  Ag8080    1.0  0.71429  0.28571  0.28571  1.0000
  Ag  Ag8081    1.0  0.71429  0.32143  0.32143  1.0000
  Ag  Ag8082    1.0  0.75000  0.28571  0.32143  1.0000
  Ag  Ag8083    1.0  0.75000  0.32143  0.28571  1.0000
  Ag  Ag8084    1.0  0.71429  0.28571  0.35714  1.0000
  Ag  Ag8085    1.0  0.71429  0.32143  0.39286  1.0000
  Ag  Ag8086    1.0  0.75000  0.28571  0.39286  1.0000
  Ag  Ag8087    1.0  0.75000  0.32143  0.35714  1.0000
  Ag  Ag8088    1.0  0.71429  0.28571  0.42857  1.0000
  Ag  Ag8089    1.0  0.71429  0.32143  0.46429  1.0000
  Ag  Ag8090    1.0  0.75000  0.28571  0.46429  1.0000
  Ag  Ag8091    1.0  0.75000  0.32143  0.42857  1.0000
  Ag  Ag8092    1.0  0.71429  0.28571  0.50000  1.0000
  Ag  Ag8093    1.0  0.71429  0.32143  0.53571  1.0000
  Ag  Ag8094    1.0  0.75000  0.28571  0.53571  1.0000
  Ag  Ag8095    1.0  0.75000  0.32143  0.50000  1.0000
  Ag  Ag8096    1.0  0.71429  0.28571  0.57143  1.0000
  Ag  Ag8097    1.0  0.71429  0.32143  0.60714  1.0000
  Ag  Ag8098    1.0  0.75000  0.28571  0.60714  1.0000
  Ag  Ag8099    1.0  0.75000  0.32143  0.57143  1.0000
  Ag  Ag8100    1.0  0.71429  0.28571  0.64286  1.0000
  Ag  Ag8101    1.0  0.71429  0.32143  0.67857  1.0000
  Ag  Ag8102    1.0  0.75000  0.28571  0.67857  1.0000
  Ag  Ag8103    1.0  0.75000  0.32143  0.64286  1.0000
  Ag  Ag8104    1.0  0.71429  0.28571  0.71429  1.0000
  Ag  Ag8105    1.0  0.71429  0.32143  0.75000  1.0000
  Ag  Ag8106    1.0  0.75000  0.28571  0.75000  1.0000
  Ag  Ag8107    1.0  0.75000  0.32143  0.71429  1.0000
  Ag  Ag8108    1.0  0.71429  0.28571  0.78571  1.0000
  Ag  Ag8109    1.0  0.71429  0.32143  0.82143  1.0000
  Ag  Ag8110    1.0  0.75000  0.28571  0.82143  1.0000
  Ag  Ag8111    1.0  0.75000  0.32143  0.78571  1.0000
  Ag  Ag8112    1.0  0.71429  0.28571  0.85714  1.0000
  Ag  Ag8113    1.0  0.71429  0.32143  0.89286  1.0000
  Ag  Ag8114    1.0  0.75000  0.28571  0.89286  1.0000
  Ag  Ag8115    1.0  0.75000  0.32143  0.85714  1.0000
  Ag  Ag8116    1.0  0.71429  0.28571  0.92857  1.0000
  Ag  Ag8117    1.0  0.71429  0.32143  0.96429  1.0000
  Ag  Ag8118    1.0  0.75000  0.28571  0.96429  1.0000
  Ag  Ag8119    1.0  0.75000  0.32143  0.92857  1.0000
  Ag  Ag8120    1.0  0.71429  0.35714  0.00000  1.0000
  Ag  Ag8121    1.0  0.71429  0.39286  0.03571  1.0000
  Ag  Ag8122    1.0  0.75000  0.35714  0.03571  1.0000
  Ag  Ag8123    1.0  0.75000  0.39286  0.00000  1.0000
  Ag  Ag8124    1.0  0.71429  0.35714  0.07143  1.0000
  Ag  Ag8125    1.0  0.71429  0.39286  0.10714  1.0000
  Ag  Ag8126    1.0  0.75000  0.35714  0.10714  1.0000
  Ag  Ag8127    1.0  0.75000  0.39286  0.07143  1.0000
  Ag  Ag8128    1.0  0.71429  0.35714  0.14286  1.0000
  Ag  Ag8129    1.0  0.71429  0.39286  0.17857  1.0000
  Ag  Ag8130    1.0  0.75000  0.35714  0.17857  1.0000
  Ag  Ag8131    1.0  0.75000  0.39286  0.14286  1.0000
  Ag  Ag8132    1.0  0.71429  0.35714  0.21429  1.0000
  Ag  Ag8133    1.0  0.71429  0.39286  0.25000  1.0000
  Ag  Ag8134    1.0  0.75000  0.35714  0.25000  1.0000
  Ag  Ag8135    1.0  0.75000  0.39286  0.21429  1.0000
  Ag  Ag8136    1.0  0.71429  0.35714  0.28571  1.0000
  Ag  Ag8137    1.0  0.71429  0.39286  0.32143  1.0000
  Ag  Ag8138    1.0  0.75000  0.35714  0.32143  1.0000
  Ag  Ag8139    1.0  0.75000  0.39286  0.28571  1.0000
  Ag  Ag8140    1.0  0.71429  0.35714  0.35714  1.0000
  Ag  Ag8141    1.0  0.71429  0.39286  0.39286  1.0000
  Ag  Ag8142    1.0  0.75000  0.35714  0.39286  1.0000
  Ag  Ag8143    1.0  0.75000  0.39286  0.35714  1.0000
  Ag  Ag8144    1.0  0.71429  0.35714  0.42857  1.0000
  Ag  Ag8145    1.0  0.71429  0.39286  0.46429  1.0000
  Ag  Ag8146    1.0  0.75000  0.35714  0.46429  1.0000
  Ag  Ag8147    1.0  0.75000  0.39286  0.42857  1.0000
  Ag  Ag8148    1.0  0.71429  0.35714  0.50000  1.0000
  Ag  Ag8149    1.0  0.71429  0.39286  0.53571  1.0000
  Ag  Ag8150    1.0  0.75000  0.35714  0.53571  1.0000
  Ag  Ag8151    1.0  0.75000  0.39286  0.50000  1.0000
  Ag  Ag8152    1.0  0.71429  0.35714  0.57143  1.0000
  Ag  Ag8153    1.0  0.71429  0.39286  0.60714  1.0000
  Ag  Ag8154    1.0  0.75000  0.35714  0.60714  1.0000
  Ag  Ag8155    1.0  0.75000  0.39286  0.57143  1.0000
  Ag  Ag8156    1.0  0.71429  0.35714  0.64286  1.0000
  Ag  Ag8157    1.0  0.71429  0.39286  0.67857  1.0000
  Ag  Ag8158    1.0  0.75000  0.35714  0.67857  1.0000
  Ag  Ag8159    1.0  0.75000  0.39286  0.64286  1.0000
  Ag  Ag8160    1.0  0.71429  0.35714  0.71429  1.0000
  Ag  Ag8161    1.0  0.71429  0.39286  0.75000  1.0000
  Ag  Ag8162    1.0  0.75000  0.35714  0.75000  1.0000
  Ag  Ag8163    1.0  0.75000  0.39286  0.71429  1.0000
  Ag  Ag8164    1.0  0.71429  0.35714  0.78571  1.0000
  Ag  Ag8165    1.0  0.71429  0.39286  0.82143  1.0000
  Ag  Ag8166    1.0  0.75000  0.35714  0.82143  1.0000
  Ag  Ag8167    1.0  0.75000  0.39286  0.78571  1.0000
  Ag  Ag8168    1.0  0.71429  0.35714  0.85714  1.0000
  Ag  Ag8169    1.0  0.71429  0.39286  0.89286  1.0000
  Ag  Ag8170    1.0  0.75000  0.35714  0.89286  1.0000
  Ag  Ag8171    1.0  0.75000  0.39286  0.85714  1.0000
  Ag  Ag8172    1.0  0.71429  0.35714  0.92857  1.0000
  Ag  Ag8173    1.0  0.71429  0.39286  0.96429  1.0000
  Ag  Ag8174    1.0  0.75000  0.35714  0.96429  1.0000
  Ag  Ag8175    1.0  0.75000  0.39286  0.92857  1.0000
  Ag  Ag8176    1.0  0.71429  0.42857  0.00000  1.0000
  Ag  Ag8177    1.0  0.71429  0.46429  0.03571  1.0000
  Ag  Ag8178    1.0  0.75000  0.42857  0.03571  1.0000
  Ag  Ag8179    1.0  0.75000  0.46429  0.00000  1.0000
  Ag  Ag8180    1.0  0.71429  0.42857  0.07143  1.0000
  Ag  Ag8181    1.0  0.71429  0.46429  0.10714  1.0000
  Ag  Ag8182    1.0  0.75000  0.42857  0.10714  1.0000
  Ag  Ag8183    1.0  0.75000  0.46429  0.07143  1.0000
  Ag  Ag8184    1.0  0.71429  0.42857  0.14286  1.0000
  Ag  Ag8185    1.0  0.71429  0.46429  0.17857  1.0000
  Ag  Ag8186    1.0  0.75000  0.42857  0.17857  1.0000
  Ag  Ag8187    1.0  0.75000  0.46429  0.14286  1.0000
  Ag  Ag8188    1.0  0.71429  0.42857  0.21429  1.0000
  Ag  Ag8189    1.0  0.71429  0.46429  0.25000  1.0000
  Ag  Ag8190    1.0  0.75000  0.42857  0.25000  1.0000
  Ag  Ag8191    1.0  0.75000  0.46429  0.21429  1.0000
  Ag  Ag8192    1.0  0.71429  0.42857  0.28571  1.0000
  Ag  Ag8193    1.0  0.71429  0.46429  0.32143  1.0000
  Ag  Ag8194    1.0  0.75000  0.42857  0.32143  1.0000
  Ag  Ag8195    1.0  0.75000  0.46429  0.28571  1.0000
  Ag  Ag8196    1.0  0.71429  0.42857  0.35714  1.0000
  Ag  Ag8197    1.0  0.71429  0.46429  0.39286  1.0000
  Ag  Ag8198    1.0  0.75000  0.42857  0.39286  1.0000
  Ag  Ag8199    1.0  0.75000  0.46429  0.35714  1.0000
  Ag  Ag8200    1.0  0.71429  0.42857  0.42857  1.0000
  Ag  Ag8201    1.0  0.71429  0.46429  0.46429  1.0000
  Ag  Ag8202    1.0  0.75000  0.42857  0.46429  1.0000
  Ag  Ag8203    1.0  0.75000  0.46429  0.42857  1.0000
  Ag  Ag8204    1.0  0.71429  0.42857  0.50000  1.0000
  Ag  Ag8205    1.0  0.71429  0.46429  0.53571  1.0000
  Ag  Ag8206    1.0  0.75000  0.42857  0.53571  1.0000
  Ag  Ag8207    1.0  0.75000  0.46429  0.50000  1.0000
  Ag  Ag8208    1.0  0.71429  0.42857  0.57143  1.0000
  Ag  Ag8209    1.0  0.71429  0.46429  0.60714  1.0000
  Ag  Ag8210    1.0  0.75000  0.42857  0.60714  1.0000
  Ag  Ag8211    1.0  0.75000  0.46429  0.57143  1.0000
  Ag  Ag8212    1.0  0.71429  0.42857  0.64286  1.0000
  Ag  Ag8213    1.0  0.71429  0.46429  0.67857  1.0000
  Ag  Ag8214    1.0  0.75000  0.42857  0.67857  1.0000
  Ag  Ag8215    1.0  0.75000  0.46429  0.64286  1.0000
  Ag  Ag8216    1.0  0.71429  0.42857  0.71429  1.0000
  Ag  Ag8217    1.0  0.71429  0.46429  0.75000  1.0000
  Ag  Ag8218    1.0  0.75000  0.42857  0.75000  1.0000
  Ag  Ag8219    1.0  0.75000  0.46429  0.71429  1.0000
  Ag  Ag8220    1.0  0.71429  0.42857  0.78571  1.0000
  Ag  Ag8221    1.0  0.71429  0.46429  0.82143  1.0000
  Ag  Ag8222    1.0  0.75000  0.42857  0.82143  1.0000
  Ag  Ag8223    1.0  0.75000  0.46429  0.78571  1.0000
  Ag  Ag8224    1.0  0.71429  0.42857  0.85714  1.0000
  Ag  Ag8225    1.0  0.71429  0.46429  0.89286  1.0000
  Ag  Ag8226    1.0  0.75000  0.42857  0.89286  1.0000
  Ag  Ag8227    1.0  0.75000  0.46429  0.85714  1.0000
  Ag  Ag8228    1.0  0.71429  0.42857  0.92857  1.0000
  Ag  Ag8229    1.0  0.71429  0.46429  0.96429  1.0000
  Ag  Ag8230    1.0  0.75000  0.42857  0.96429  1.0000
  Ag  Ag8231    1.0  0.75000  0.46429  0.92857  1.0000
  Ag  Ag8232    1.0  0.71429  0.50000  0.00000  1.0000
  Ag  Ag8233    1.0  0.71429  0.53571  0.03571  1.0000
  Ag  Ag8234    1.0  0.75000  0.50000  0.03571  1.0000
  Ag  Ag8235    1.0  0.75000  0.53571  0.00000  1.0000
  Ag  Ag8236    1.0  0.71429  0.50000  0.07143  1.0000
  Ag  Ag8237    1.0  0.71429  0.53571  0.10714  1.0000
  Ag  Ag8238    1.0  0.75000  0.50000  0.10714  1.0000
  Ag  Ag8239    1.0  0.75000  0.53571  0.07143  1.0000
  Ag  Ag8240    1.0  0.71429  0.50000  0.14286  1.0000
  Ag  Ag8241    1.0  0.71429  0.53571  0.17857  1.0000
  Ag  Ag8242    1.0  0.75000  0.50000  0.17857  1.0000
  Ag  Ag8243    1.0  0.75000  0.53571  0.14286  1.0000
  Ag  Ag8244    1.0  0.71429  0.50000  0.21429  1.0000
  Ag  Ag8245    1.0  0.71429  0.53571  0.25000  1.0000
  Ag  Ag8246    1.0  0.75000  0.50000  0.25000  1.0000
  Ag  Ag8247    1.0  0.75000  0.53571  0.21429  1.0000
  Ag  Ag8248    1.0  0.71429  0.50000  0.28571  1.0000
  Ag  Ag8249    1.0  0.71429  0.53571  0.32143  1.0000
  Ag  Ag8250    1.0  0.75000  0.50000  0.32143  1.0000
  Ag  Ag8251    1.0  0.75000  0.53571  0.28571  1.0000
  Ag  Ag8252    1.0  0.71429  0.50000  0.35714  1.0000
  Ag  Ag8253    1.0  0.71429  0.53571  0.39286  1.0000
  Ag  Ag8254    1.0  0.75000  0.50000  0.39286  1.0000
  Ag  Ag8255    1.0  0.75000  0.53571  0.35714  1.0000
  Ag  Ag8256    1.0  0.71429  0.50000  0.42857  1.0000
  Ag  Ag8257    1.0  0.71429  0.53571  0.46429  1.0000
  Ag  Ag8258    1.0  0.75000  0.50000  0.46429  1.0000
  Ag  Ag8259    1.0  0.75000  0.53571  0.42857  1.0000
  Ag  Ag8260    1.0  0.71429  0.50000  0.50000  1.0000
  Ag  Ag8261    1.0  0.71429  0.53571  0.53571  1.0000
  Ag  Ag8262    1.0  0.75000  0.50000  0.53571  1.0000
  Ag  Ag8263    1.0  0.75000  0.53571  0.50000  1.0000
  Ag  Ag8264    1.0  0.71429  0.50000  0.57143  1.0000
  Ag  Ag8265    1.0  0.71429  0.53571  0.60714  1.0000
  Ag  Ag8266    1.0  0.75000  0.50000  0.60714  1.0000
  Ag  Ag8267    1.0  0.75000  0.53571  0.57143  1.0000
  Ag  Ag8268    1.0  0.71429  0.50000  0.64286  1.0000
  Ag  Ag8269    1.0  0.71429  0.53571  0.67857  1.0000
  Ag  Ag8270    1.0  0.75000  0.50000  0.67857  1.0000
  Ag  Ag8271    1.0  0.75000  0.53571  0.64286  1.0000
  Ag  Ag8272    1.0  0.71429  0.50000  0.71429  1.0000
  Ag  Ag8273    1.0  0.71429  0.53571  0.75000  1.0000
  Ag  Ag8274    1.0  0.75000  0.50000  0.75000  1.0000
  Ag  Ag8275    1.0  0.75000  0.53571  0.71429  1.0000
  Ag  Ag8276    1.0  0.71429  0.50000  0.78571  1.0000
  Ag  Ag8277    1.0  0.71429  0.53571  0.82143  1.0000
  Ag  Ag8278    1.0  0.75000  0.50000  0.82143  1.0000
  Ag  Ag8279    1.0  0.75000  0.53571  0.78571  1.0000
  Ag  Ag8280    1.0  0.71429  0.50000  0.85714  1.0000
  Ag  Ag8281    1.0  0.71429  0.53571  0.89286  1.0000
  Ag  Ag8282    1.0  0.75000  0.50000  0.89286  1.0000
  Ag  Ag8283    1.0  0.75000  0.53571  0.85714  1.0000
  Ag  Ag8284    1.0  0.71429  0.50000  0.92857  1.0000
  Ag  Ag8285    1.0  0.71429  0.53571  0.96429  1.0000
  Ag  Ag8286    1.0  0.75000  0.50000  0.96429  1.0000
  Ag  Ag8287    1.0  0.75000  0.53571  0.92857  1.0000
  Ag  Ag8288    1.0  0.71429  0.57143  0.00000  1.0000
  Ag  Ag8289    1.0  0.71429  0.60714  0.03571  1.0000
  Ag  Ag8290    1.0  0.75000  0.57143  0.03571  1.0000
  Ag  Ag8291    1.0  0.75000  0.60714  0.00000  1.0000
  Ag  Ag8292    1.0  0.71429  0.57143  0.07143  1.0000
  Ag  Ag8293    1.0  0.71429  0.60714  0.10714  1.0000
  Ag  Ag8294    1.0  0.75000  0.57143  0.10714  1.0000
  Ag  Ag8295    1.0  0.75000  0.60714  0.07143  1.0000
  Ag  Ag8296    1.0  0.71429  0.57143  0.14286  1.0000
  Ag  Ag8297    1.0  0.71429  0.60714  0.17857  1.0000
  Ag  Ag8298    1.0  0.75000  0.57143  0.17857  1.0000
  Ag  Ag8299    1.0  0.75000  0.60714  0.14286  1.0000
  Ag  Ag8300    1.0  0.71429  0.57143  0.21429  1.0000
  Ag  Ag8301    1.0  0.71429  0.60714  0.25000  1.0000
  Ag  Ag8302    1.0  0.75000  0.57143  0.25000  1.0000
  Ag  Ag8303    1.0  0.75000  0.60714  0.21429  1.0000
  Ag  Ag8304    1.0  0.71429  0.57143  0.28571  1.0000
  Ag  Ag8305    1.0  0.71429  0.60714  0.32143  1.0000
  Ag  Ag8306    1.0  0.75000  0.57143  0.32143  1.0000
  Ag  Ag8307    1.0  0.75000  0.60714  0.28571  1.0000
  Ag  Ag8308    1.0  0.71429  0.57143  0.35714  1.0000
  Ag  Ag8309    1.0  0.71429  0.60714  0.39286  1.0000
  Ag  Ag8310    1.0  0.75000  0.57143  0.39286  1.0000
  Ag  Ag8311    1.0  0.75000  0.60714  0.35714  1.0000
  Ag  Ag8312    1.0  0.71429  0.57143  0.42857  1.0000
  Ag  Ag8313    1.0  0.71429  0.60714  0.46429  1.0000
  Ag  Ag8314    1.0  0.75000  0.57143  0.46429  1.0000
  Ag  Ag8315    1.0  0.75000  0.60714  0.42857  1.0000
  Ag  Ag8316    1.0  0.71429  0.57143  0.50000  1.0000
  Ag  Ag8317    1.0  0.71429  0.60714  0.53571  1.0000
  Ag  Ag8318    1.0  0.75000  0.57143  0.53571  1.0000
  Ag  Ag8319    1.0  0.75000  0.60714  0.50000  1.0000
  Ag  Ag8320    1.0  0.71429  0.57143  0.57143  1.0000
  Ag  Ag8321    1.0  0.71429  0.60714  0.60714  1.0000
  Ag  Ag8322    1.0  0.75000  0.57143  0.60714  1.0000
  Ag  Ag8323    1.0  0.75000  0.60714  0.57143  1.0000
  Ag  Ag8324    1.0  0.71429  0.57143  0.64286  1.0000
  Ag  Ag8325    1.0  0.71429  0.60714  0.67857  1.0000
  Ag  Ag8326    1.0  0.75000  0.57143  0.67857  1.0000
  Ag  Ag8327    1.0  0.75000  0.60714  0.64286  1.0000
  Ag  Ag8328    1.0  0.71429  0.57143  0.71429  1.0000
  Ag  Ag8329    1.0  0.71429  0.60714  0.75000  1.0000
  Ag  Ag8330    1.0  0.75000  0.57143  0.75000  1.0000
  Ag  Ag8331    1.0  0.75000  0.60714  0.71429  1.0000
  Ag  Ag8332    1.0  0.71429  0.57143  0.78571  1.0000
  Ag  Ag8333    1.0  0.71429  0.60714  0.82143  1.0000
  Ag  Ag8334    1.0  0.75000  0.57143  0.82143  1.0000
  Ag  Ag8335    1.0  0.75000  0.60714  0.78571  1.0000
  Ag  Ag8336    1.0  0.71429  0.57143  0.85714  1.0000
  Ag  Ag8337    1.0  0.71429  0.60714  0.89286  1.0000
  Ag  Ag8338    1.0  0.75000  0.57143  0.89286  1.0000
  Ag  Ag8339    1.0  0.75000  0.60714  0.85714  1.0000
  Ag  Ag8340    1.0  0.71429  0.57143  0.92857  1.0000
  Ag  Ag8341    1.0  0.71429  0.60714  0.96429  1.0000
  Ag  Ag8342    1.0  0.75000  0.57143  0.96429  1.0000
  Ag  Ag8343    1.0  0.75000  0.60714  0.92857  1.0000
  Ag  Ag8344    1.0  0.71429  0.64286  0.00000  1.0000
  Ag  Ag8345    1.0  0.71429  0.67857  0.03571  1.0000
  Ag  Ag8346    1.0  0.75000  0.64286  0.03571  1.0000
  Ag  Ag8347    1.0  0.75000  0.67857  0.00000  1.0000
  Ag  Ag8348    1.0  0.71429  0.64286  0.07143  1.0000
  Ag  Ag8349    1.0  0.71429  0.67857  0.10714  1.0000
  Ag  Ag8350    1.0  0.75000  0.64286  0.10714  1.0000
  Ag  Ag8351    1.0  0.75000  0.67857  0.07143  1.0000
  Ag  Ag8352    1.0  0.71429  0.64286  0.14286  1.0000
  Ag  Ag8353    1.0  0.71429  0.67857  0.17857  1.0000
  Ag  Ag8354    1.0  0.75000  0.64286  0.17857  1.0000
  Ag  Ag8355    1.0  0.75000  0.67857  0.14286  1.0000
  Ag  Ag8356    1.0  0.71429  0.64286  0.21429  1.0000
  Ag  Ag8357    1.0  0.71429  0.67857  0.25000  1.0000
  Ag  Ag8358    1.0  0.75000  0.64286  0.25000  1.0000
  Ag  Ag8359    1.0  0.75000  0.67857  0.21429  1.0000
  Ag  Ag8360    1.0  0.71429  0.64286  0.28571  1.0000
  Ag  Ag8361    1.0  0.71429  0.67857  0.32143  1.0000
  Ag  Ag8362    1.0  0.75000  0.64286  0.32143  1.0000
  Ag  Ag8363    1.0  0.75000  0.67857  0.28571  1.0000
  Ag  Ag8364    1.0  0.71429  0.64286  0.35714  1.0000
  Ag  Ag8365    1.0  0.71429  0.67857  0.39286  1.0000
  Ag  Ag8366    1.0  0.75000  0.64286  0.39286  1.0000
  Ag  Ag8367    1.0  0.75000  0.67857  0.35714  1.0000
  Ag  Ag8368    1.0  0.71429  0.64286  0.42857  1.0000
  Ag  Ag8369    1.0  0.71429  0.67857  0.46429  1.0000
  Ag  Ag8370    1.0  0.75000  0.64286  0.46429  1.0000
  Ag  Ag8371    1.0  0.75000  0.67857  0.42857  1.0000
  Ag  Ag8372    1.0  0.71429  0.64286  0.50000  1.0000
  Ag  Ag8373    1.0  0.71429  0.67857  0.53571  1.0000
  Ag  Ag8374    1.0  0.75000  0.64286  0.53571  1.0000
  Ag  Ag8375    1.0  0.75000  0.67857  0.50000  1.0000
  Ag  Ag8376    1.0  0.71429  0.64286  0.57143  1.0000
  Ag  Ag8377    1.0  0.71429  0.67857  0.60714  1.0000
  Ag  Ag8378    1.0  0.75000  0.64286  0.60714  1.0000
  Ag  Ag8379    1.0  0.75000  0.67857  0.57143  1.0000
  Ag  Ag8380    1.0  0.71429  0.64286  0.64286  1.0000
  Ag  Ag8381    1.0  0.71429  0.67857  0.67857  1.0000
  Ag  Ag8382    1.0  0.75000  0.64286  0.67857  1.0000
  Ag  Ag8383    1.0  0.75000  0.67857  0.64286  1.0000
  Ag  Ag8384    1.0  0.71429  0.64286  0.71429  1.0000
  Ag  Ag8385    1.0  0.71429  0.67857  0.75000  1.0000
  Ag  Ag8386    1.0  0.75000  0.64286  0.75000  1.0000
  Ag  Ag8387    1.0  0.75000  0.67857  0.71429  1.0000
  Ag  Ag8388    1.0  0.71429  0.64286  0.78571  1.0000
  Ag  Ag8389    1.0  0.71429  0.67857  0.82143  1.0000
  Ag  Ag8390    1.0  0.75000  0.64286  0.82143  1.0000
  Ag  Ag8391    1.0  0.75000  0.67857  0.78571  1.0000
  Ag  Ag8392    1.0  0.71429  0.64286  0.85714  1.0000
  Ag  Ag8393    1.0  0.71429  0.67857  0.89286  1.0000
  Ag  Ag8394    1.0  0.75000  0.64286  0.89286  1.0000
  Ag  Ag8395    1.0  0.75000  0.67857  0.85714  1.0000
  Ag  Ag8396    1.0  0.71429  0.64286  0.92857  1.0000
  Ag  Ag8397    1.0  0.71429  0.67857  0.96429  1.0000
  Ag  Ag8398    1.0  0.75000  0.64286  0.96429  1.0000
  Ag  Ag8399    1.0  0.75000  0.67857  0.92857  1.0000
  Ag  Ag8400    1.0  0.71429  0.71429  0.00000  1.0000
  Ag  Ag8401    1.0  0.71429  0.75000  0.03571  1.0000
  Ag  Ag8402    1.0  0.75000  0.71429  0.03571  1.0000
  Ag  Ag8403    1.0  0.75000  0.75000  0.00000  1.0000
  Ag  Ag8404    1.0  0.71429  0.71429  0.07143  1.0000
  Ag  Ag8405    1.0  0.71429  0.75000  0.10714  1.0000
  Ag  Ag8406    1.0  0.75000  0.71429  0.10714  1.0000
  Ag  Ag8407    1.0  0.75000  0.75000  0.07143  1.0000
  Ag  Ag8408    1.0  0.71429  0.71429  0.14286  1.0000
  Ag  Ag8409    1.0  0.71429  0.75000  0.17857  1.0000
  Ag  Ag8410    1.0  0.75000  0.71429  0.17857  1.0000
  Ag  Ag8411    1.0  0.75000  0.75000  0.14286  1.0000
  Ag  Ag8412    1.0  0.71429  0.71429  0.21429  1.0000
  Ag  Ag8413    1.0  0.71429  0.75000  0.25000  1.0000
  Ag  Ag8414    1.0  0.75000  0.71429  0.25000  1.0000
  Ag  Ag8415    1.0  0.75000  0.75000  0.21429  1.0000
  Ag  Ag8416    1.0  0.71429  0.71429  0.28571  1.0000
  Ag  Ag8417    1.0  0.71429  0.75000  0.32143  1.0000
  Ag  Ag8418    1.0  0.75000  0.71429  0.32143  1.0000
  Ag  Ag8419    1.0  0.75000  0.75000  0.28571  1.0000
  Ag  Ag8420    1.0  0.71429  0.71429  0.35714  1.0000
  Ag  Ag8421    1.0  0.71429  0.75000  0.39286  1.0000
  Ag  Ag8422    1.0  0.75000  0.71429  0.39286  1.0000
  Ag  Ag8423    1.0  0.75000  0.75000  0.35714  1.0000
  Ag  Ag8424    1.0  0.71429  0.71429  0.42857  1.0000
  Ag  Ag8425    1.0  0.71429  0.75000  0.46429  1.0000
  Ag  Ag8426    1.0  0.75000  0.71429  0.46429  1.0000
  Ag  Ag8427    1.0  0.75000  0.75000  0.42857  1.0000
  Ag  Ag8428    1.0  0.71429  0.71429  0.50000  1.0000
  Ag  Ag8429    1.0  0.71429  0.75000  0.53571  1.0000
  Ag  Ag8430    1.0  0.75000  0.71429  0.53571  1.0000
  Ag  Ag8431    1.0  0.75000  0.75000  0.50000  1.0000
  Ag  Ag8432    1.0  0.71429  0.71429  0.57143  1.0000
  Ag  Ag8433    1.0  0.71429  0.75000  0.60714  1.0000
  Ag  Ag8434    1.0  0.75000  0.71429  0.60714  1.0000
  Ag  Ag8435    1.0  0.75000  0.75000  0.57143  1.0000
  Ag  Ag8436    1.0  0.71429  0.71429  0.64286  1.0000
  Ag  Ag8437    1.0  0.71429  0.75000  0.67857  1.0000
  Ag  Ag8438    1.0  0.75000  0.71429  0.67857  1.0000
  Ag  Ag8439    1.0  0.75000  0.75000  0.64286  1.0000
  Ag  Ag8440    1.0  0.71429  0.71429  0.71429  1.0000
  Ag  Ag8441    1.0  0.71429  0.75000  0.75000  1.0000
  Ag  Ag8442    1.0  0.75000  0.71429  0.75000  1.0000
  Ag  Ag8443    1.0  0.75000  0.75000  0.71429  1.0000
  Ag  Ag8444    1.0  0.71429  0.71429  0.78571  1.0000
  Ag  Ag8445    1.0  0.71429  0.75000  0.82143  1.0000
  Ag  Ag8446    1.0  0.75000  0.71429  0.82143  1.0000
  Ag  Ag8447    1.0  0.75000  0.75000  0.78571  1.0000
  Ag  Ag8448    1.0  0.71429  0.71429  0.85714  1.0000
  Ag  Ag8449    1.0  0.71429  0.75000  0.89286  1.0000
  Ag  Ag8450    1.0  0.75000  0.71429  0.89286  1.0000
  Ag  Ag8451    1.0  0.75000  0.75000  0.85714  1.0000
  Ag  Ag8452    1.0  0.71429  0.71429  0.92857  1.0000
  Ag  Ag8453    1.0  0.71429  0.75000  0.96429  1.0000
  Ag  Ag8454    1.0  0.75000  0.71429  0.96429  1.0000
  Ag  Ag8455    1.0  0.75000  0.75000  0.92857  1.0000
  Ag  Ag8456    1.0  0.71429  0.78571  0.00000  1.0000
  Ag  Ag8457    1.0  0.71429  0.82143  0.03571  1.0000
  Ag  Ag8458    1.0  0.75000  0.78571  0.03571  1.0000
  Ag  Ag8459    1.0  0.75000  0.82143  0.00000  1.0000
  Ag  Ag8460    1.0  0.71429  0.78571  0.07143  1.0000
  Ag  Ag8461    1.0  0.71429  0.82143  0.10714  1.0000
  Ag  Ag8462    1.0  0.75000  0.78571  0.10714  1.0000
  Ag  Ag8463    1.0  0.75000  0.82143  0.07143  1.0000
  Ag  Ag8464    1.0  0.71429  0.78571  0.14286  1.0000
  Ag  Ag8465    1.0  0.71429  0.82143  0.17857  1.0000
  Ag  Ag8466    1.0  0.75000  0.78571  0.17857  1.0000
  Ag  Ag8467    1.0  0.75000  0.82143  0.14286  1.0000
  Ag  Ag8468    1.0  0.71429  0.78571  0.21429  1.0000
  Ag  Ag8469    1.0  0.71429  0.82143  0.25000  1.0000
  Ag  Ag8470    1.0  0.75000  0.78571  0.25000  1.0000
  Ag  Ag8471    1.0  0.75000  0.82143  0.21429  1.0000
  Ag  Ag8472    1.0  0.71429  0.78571  0.28571  1.0000
  Ag  Ag8473    1.0  0.71429  0.82143  0.32143  1.0000
  Ag  Ag8474    1.0  0.75000  0.78571  0.32143  1.0000
  Ag  Ag8475    1.0  0.75000  0.82143  0.28571  1.0000
  Ag  Ag8476    1.0  0.71429  0.78571  0.35714  1.0000
  Ag  Ag8477    1.0  0.71429  0.82143  0.39286  1.0000
  Ag  Ag8478    1.0  0.75000  0.78571  0.39286  1.0000
  Ag  Ag8479    1.0  0.75000  0.82143  0.35714  1.0000
  Ag  Ag8480    1.0  0.71429  0.78571  0.42857  1.0000
  Ag  Ag8481    1.0  0.71429  0.82143  0.46429  1.0000
  Ag  Ag8482    1.0  0.75000  0.78571  0.46429  1.0000
  Ag  Ag8483    1.0  0.75000  0.82143  0.42857  1.0000
  Ag  Ag8484    1.0  0.71429  0.78571  0.50000  1.0000
  Ag  Ag8485    1.0  0.71429  0.82143  0.53571  1.0000
  Ag  Ag8486    1.0  0.75000  0.78571  0.53571  1.0000
  Ag  Ag8487    1.0  0.75000  0.82143  0.50000  1.0000
  Ag  Ag8488    1.0  0.71429  0.78571  0.57143  1.0000
  Ag  Ag8489    1.0  0.71429  0.82143  0.60714  1.0000
  Ag  Ag8490    1.0  0.75000  0.78571  0.60714  1.0000
  Ag  Ag8491    1.0  0.75000  0.82143  0.57143  1.0000
  Ag  Ag8492    1.0  0.71429  0.78571  0.64286  1.0000
  Ag  Ag8493    1.0  0.71429  0.82143  0.67857  1.0000
  Ag  Ag8494    1.0  0.75000  0.78571  0.67857  1.0000
  Ag  Ag8495    1.0  0.75000  0.82143  0.64286  1.0000
  Ag  Ag8496    1.0  0.71429  0.78571  0.71429  1.0000
  Ag  Ag8497    1.0  0.71429  0.82143  0.75000  1.0000
  Ag  Ag8498    1.0  0.75000  0.78571  0.75000  1.0000
  Ag  Ag8499    1.0  0.75000  0.82143  0.71429  1.0000
  Ag  Ag8500    1.0  0.71429  0.78571  0.78571  1.0000
  Ag  Ag8501    1.0  0.71429  0.82143  0.82143  1.0000
  Ag  Ag8502    1.0  0.75000  0.78571  0.82143  1.0000
  Ag  Ag8503    1.0  0.75000  0.82143  0.78571  1.0000
  Ag  Ag8504    1.0  0.71429  0.78571  0.85714  1.0000
  Ag  Ag8505    1.0  0.71429  0.82143  0.89286  1.0000
  Ag  Ag8506    1.0  0.75000  0.78571  0.89286  1.0000
  Ag  Ag8507    1.0  0.75000  0.82143  0.85714  1.0000
  Ag  Ag8508    1.0  0.71429  0.78571  0.92857  1.0000
  Ag  Ag8509    1.0  0.71429  0.82143  0.96429  1.0000
  Ag  Ag8510    1.0  0.75000  0.78571  0.96429  1.0000
  Ag  Ag8511    1.0  0.75000  0.82143  0.92857  1.0000
  Ag  Ag8512    1.0  0.71429  0.85714  0.00000  1.0000
  Ag  Ag8513    1.0  0.71429  0.89286  0.03571  1.0000
  Ag  Ag8514    1.0  0.75000  0.85714  0.03571  1.0000
  Ag  Ag8515    1.0  0.75000  0.89286  0.00000  1.0000
  Ag  Ag8516    1.0  0.71429  0.85714  0.07143  1.0000
  Ag  Ag8517    1.0  0.71429  0.89286  0.10714  1.0000
  Ag  Ag8518    1.0  0.75000  0.85714  0.10714  1.0000
  Ag  Ag8519    1.0  0.75000  0.89286  0.07143  1.0000
  Ag  Ag8520    1.0  0.71429  0.85714  0.14286  1.0000
  Ag  Ag8521    1.0  0.71429  0.89286  0.17857  1.0000
  Ag  Ag8522    1.0  0.75000  0.85714  0.17857  1.0000
  Ag  Ag8523    1.0  0.75000  0.89286  0.14286  1.0000
  Ag  Ag8524    1.0  0.71429  0.85714  0.21429  1.0000
  Ag  Ag8525    1.0  0.71429  0.89286  0.25000  1.0000
  Ag  Ag8526    1.0  0.75000  0.85714  0.25000  1.0000
  Ag  Ag8527    1.0  0.75000  0.89286  0.21429  1.0000
  Ag  Ag8528    1.0  0.71429  0.85714  0.28571  1.0000
  Ag  Ag8529    1.0  0.71429  0.89286  0.32143  1.0000
  Ag  Ag8530    1.0  0.75000  0.85714  0.32143  1.0000
  Ag  Ag8531    1.0  0.75000  0.89286  0.28571  1.0000
  Ag  Ag8532    1.0  0.71429  0.85714  0.35714  1.0000
  Ag  Ag8533    1.0  0.71429  0.89286  0.39286  1.0000
  Ag  Ag8534    1.0  0.75000  0.85714  0.39286  1.0000
  Ag  Ag8535    1.0  0.75000  0.89286  0.35714  1.0000
  Ag  Ag8536    1.0  0.71429  0.85714  0.42857  1.0000
  Ag  Ag8537    1.0  0.71429  0.89286  0.46429  1.0000
  Ag  Ag8538    1.0  0.75000  0.85714  0.46429  1.0000
  Ag  Ag8539    1.0  0.75000  0.89286  0.42857  1.0000
  Ag  Ag8540    1.0  0.71429  0.85714  0.50000  1.0000
  Ag  Ag8541    1.0  0.71429  0.89286  0.53571  1.0000
  Ag  Ag8542    1.0  0.75000  0.85714  0.53571  1.0000
  Ag  Ag8543    1.0  0.75000  0.89286  0.50000  1.0000
  Ag  Ag8544    1.0  0.71429  0.85714  0.57143  1.0000
  Ag  Ag8545    1.0  0.71429  0.89286  0.60714  1.0000
  Ag  Ag8546    1.0  0.75000  0.85714  0.60714  1.0000
  Ag  Ag8547    1.0  0.75000  0.89286  0.57143  1.0000
  Ag  Ag8548    1.0  0.71429  0.85714  0.64286  1.0000
  Ag  Ag8549    1.0  0.71429  0.89286  0.67857  1.0000
  Ag  Ag8550    1.0  0.75000  0.85714  0.67857  1.0000
  Ag  Ag8551    1.0  0.75000  0.89286  0.64286  1.0000
  Ag  Ag8552    1.0  0.71429  0.85714  0.71429  1.0000
  Ag  Ag8553    1.0  0.71429  0.89286  0.75000  1.0000
  Ag  Ag8554    1.0  0.75000  0.85714  0.75000  1.0000
  Ag  Ag8555    1.0  0.75000  0.89286  0.71429  1.0000
  Ag  Ag8556    1.0  0.71429  0.85714  0.78571  1.0000
  Ag  Ag8557    1.0  0.71429  0.89286  0.82143  1.0000
  Ag  Ag8558    1.0  0.75000  0.85714  0.82143  1.0000
  Ag  Ag8559    1.0  0.75000  0.89286  0.78571  1.0000
  Ag  Ag8560    1.0  0.71429  0.85714  0.85714  1.0000
  Ag  Ag8561    1.0  0.71429  0.89286  0.89286  1.0000
  Ag  Ag8562    1.0  0.75000  0.85714  0.89286  1.0000
  Ag  Ag8563    1.0  0.75000  0.89286  0.85714  1.0000
  Ag  Ag8564    1.0  0.71429  0.85714  0.92857  1.0000
  Ag  Ag8565    1.0  0.71429  0.89286  0.96429  1.0000
  Ag  Ag8566    1.0  0.75000  0.85714  0.96429  1.0000
  Ag  Ag8567    1.0  0.75000  0.89286  0.92857  1.0000
  Ag  Ag8568    1.0  0.71429  0.92857  0.00000  1.0000
  Ag  Ag8569    1.0  0.71429  0.96429  0.03571  1.0000
  Ag  Ag8570    1.0  0.75000  0.92857  0.03571  1.0000
  Ag  Ag8571    1.0  0.75000  0.96429  0.00000  1.0000
  Ag  Ag8572    1.0  0.71429  0.92857  0.07143  1.0000
  Ag  Ag8573    1.0  0.71429  0.96429  0.10714  1.0000
  Ag  Ag8574    1.0  0.75000  0.92857  0.10714  1.0000
  Ag  Ag8575    1.0  0.75000  0.96429  0.07143  1.0000
  Ag  Ag8576    1.0  0.71429  0.92857  0.14286  1.0000
  Ag  Ag8577    1.0  0.71429  0.96429  0.17857  1.0000
  Ag  Ag8578    1.0  0.75000  0.92857  0.17857  1.0000
  Ag  Ag8579    1.0  0.75000  0.96429  0.14286  1.0000
  Ag  Ag8580    1.0  0.71429  0.92857  0.21429  1.0000
  Ag  Ag8581    1.0  0.71429  0.96429  0.25000  1.0000
  Ag  Ag8582    1.0  0.75000  0.92857  0.25000  1.0000
  Ag  Ag8583    1.0  0.75000  0.96429  0.21429  1.0000
  Ag  Ag8584    1.0  0.71429  0.92857  0.28571  1.0000
  Ag  Ag8585    1.0  0.71429  0.96429  0.32143  1.0000
  Ag  Ag8586    1.0  0.75000  0.92857  0.32143  1.0000
  Ag  Ag8587    1.0  0.75000  0.96429  0.28571  1.0000
  Ag  Ag8588    1.0  0.71429  0.92857  0.35714  1.0000
  Ag  Ag8589    1.0  0.71429  0.96429  0.39286  1.0000
  Ag  Ag8590    1.0  0.75000  0.92857  0.39286  1.0000
  Ag  Ag8591    1.0  0.75000  0.96429  0.35714  1.0000
  Ag  Ag8592    1.0  0.71429  0.92857  0.42857  1.0000
  Ag  Ag8593    1.0  0.71429  0.96429  0.46429  1.0000
  Ag  Ag8594    1.0  0.75000  0.92857  0.46429  1.0000
  Ag  Ag8595    1.0  0.75000  0.96429  0.42857  1.0000
  Ag  Ag8596    1.0  0.71429  0.92857  0.50000  1.0000
  Ag  Ag8597    1.0  0.71429  0.96429  0.53571  1.0000
  Ag  Ag8598    1.0  0.75000  0.92857  0.53571  1.0000
  Ag  Ag8599    1.0  0.75000  0.96429  0.50000  1.0000
  Ag  Ag8600    1.0  0.71429  0.92857  0.57143  1.0000
  Ag  Ag8601    1.0  0.71429  0.96429  0.60714  1.0000
  Ag  Ag8602    1.0  0.75000  0.92857  0.60714  1.0000
  Ag  Ag8603    1.0  0.75000  0.96429  0.57143  1.0000
  Ag  Ag8604    1.0  0.71429  0.92857  0.64286  1.0000
  Ag  Ag8605    1.0  0.71429  0.96429  0.67857  1.0000
  Ag  Ag8606    1.0  0.75000  0.92857  0.67857  1.0000
  Ag  Ag8607    1.0  0.75000  0.96429  0.64286  1.0000
  Ag  Ag8608    1.0  0.71429  0.92857  0.71429  1.0000
  Ag  Ag8609    1.0  0.71429  0.96429  0.75000  1.0000
  Ag  Ag8610    1.0  0.75000  0.92857  0.75000  1.0000
  Ag  Ag8611    1.0  0.75000  0.96429  0.71429  1.0000
  Ag  Ag8612    1.0  0.71429  0.92857  0.78571  1.0000
  Ag  Ag8613    1.0  0.71429  0.96429  0.82143  1.0000
  Ag  Ag8614    1.0  0.75000  0.92857  0.82143  1.0000
  Ag  Ag8615    1.0  0.75000  0.96429  0.78571  1.0000
  Ag  Ag8616    1.0  0.71429  0.92857  0.85714  1.0000
  Ag  Ag8617    1.0  0.71429  0.96429  0.89286  1.0000
  Ag  Ag8618    1.0  0.75000  0.92857  0.89286  1.0000
  Ag  Ag8619    1.0  0.75000  0.96429  0.85714  1.0000
  Ag  Ag8620    1.0  0.71429  0.92857  0.92857  1.0000
  Ag  Ag8621    1.0  0.71429  0.96429  0.96429  1.0000
  Ag  Ag8622    1.0  0.75000  0.92857  0.96429  1.0000
  Ag  Ag8623    1.0  0.75000  0.96429  0.92857  1.0000
  Ag  Ag8624    1.0  0.78571  0.00000  0.00000  1.0000
  Ag  Ag8625    1.0  0.78571  0.03571  0.03571  1.0000
  Ag  Ag8626    1.0  0.82143  0.00000  0.03571  1.0000
  Ag  Ag8627    1.0  0.82143  0.03571  0.00000  1.0000
  Ag  Ag8628    1.0  0.78571  0.00000  0.07143  1.0000
  Ag  Ag8629    1.0  0.78571  0.03571  0.10714  1.0000
  Ag  Ag8630    1.0  0.82143  0.00000  0.10714  1.0000
  Ag  Ag8631    1.0  0.82143  0.03571  0.07143  1.0000
  Ag  Ag8632    1.0  0.78571  0.00000  0.14286  1.0000
  Ag  Ag8633    1.0  0.78571  0.03571  0.17857  1.0000
  Ag  Ag8634    1.0  0.82143  0.00000  0.17857  1.0000
  Ag  Ag8635    1.0  0.82143  0.03571  0.14286  1.0000
  Ag  Ag8636    1.0  0.78571  0.00000  0.21429  1.0000
  Ag  Ag8637    1.0  0.78571  0.03571  0.25000  1.0000
  Ag  Ag8638    1.0  0.82143  0.00000  0.25000  1.0000
  Ag  Ag8639    1.0  0.82143  0.03571  0.21429  1.0000
  Ag  Ag8640    1.0  0.78571  0.00000  0.28571  1.0000
  Ag  Ag8641    1.0  0.78571  0.03571  0.32143  1.0000
  Ag  Ag8642    1.0  0.82143  0.00000  0.32143  1.0000
  Ag  Ag8643    1.0  0.82143  0.03571  0.28571  1.0000
  Ag  Ag8644    1.0  0.78571  0.00000  0.35714  1.0000
  Ag  Ag8645    1.0  0.78571  0.03571  0.39286  1.0000
  Ag  Ag8646    1.0  0.82143  0.00000  0.39286  1.0000
  Ag  Ag8647    1.0  0.82143  0.03571  0.35714  1.0000
  Ag  Ag8648    1.0  0.78571  0.00000  0.42857  1.0000
  Ag  Ag8649    1.0  0.78571  0.03571  0.46429  1.0000
  Ag  Ag8650    1.0  0.82143  0.00000  0.46429  1.0000
  Ag  Ag8651    1.0  0.82143  0.03571  0.42857  1.0000
  Ag  Ag8652    1.0  0.78571  0.00000  0.50000  1.0000
  Ag  Ag8653    1.0  0.78571  0.03571  0.53571  1.0000
  Ag  Ag8654    1.0  0.82143  0.00000  0.53571  1.0000
  Ag  Ag8655    1.0  0.82143  0.03571  0.50000  1.0000
  Ag  Ag8656    1.0  0.78571  0.00000  0.57143  1.0000
  Ag  Ag8657    1.0  0.78571  0.03571  0.60714  1.0000
  Ag  Ag8658    1.0  0.82143  0.00000  0.60714  1.0000
  Ag  Ag8659    1.0  0.82143  0.03571  0.57143  1.0000
  Ag  Ag8660    1.0  0.78571  0.00000  0.64286  1.0000
  Ag  Ag8661    1.0  0.78571  0.03571  0.67857  1.0000
  Ag  Ag8662    1.0  0.82143  0.00000  0.67857  1.0000
  Ag  Ag8663    1.0  0.82143  0.03571  0.64286  1.0000
  Ag  Ag8664    1.0  0.78571  0.00000  0.71429  1.0000
  Ag  Ag8665    1.0  0.78571  0.03571  0.75000  1.0000
  Ag  Ag8666    1.0  0.82143  0.00000  0.75000  1.0000
  Ag  Ag8667    1.0  0.82143  0.03571  0.71429  1.0000
  Ag  Ag8668    1.0  0.78571  0.00000  0.78571  1.0000
  Ag  Ag8669    1.0  0.78571  0.03571  0.82143  1.0000
  Ag  Ag8670    1.0  0.82143  0.00000  0.82143  1.0000
  Ag  Ag8671    1.0  0.82143  0.03571  0.78571  1.0000
  Ag  Ag8672    1.0  0.78571  0.00000  0.85714  1.0000
  Ag  Ag8673    1.0  0.78571  0.03571  0.89286  1.0000
  Ag  Ag8674    1.0  0.82143  0.00000  0.89286  1.0000
  Ag  Ag8675    1.0  0.82143  0.03571  0.85714  1.0000
  Ag  Ag8676    1.0  0.78571  0.00000  0.92857  1.0000
  Ag  Ag8677    1.0  0.78571  0.03571  0.96429  1.0000
  Ag  Ag8678    1.0  0.82143  0.00000  0.96429  1.0000
  Ag  Ag8679    1.0  0.82143  0.03571  0.92857  1.0000
  Ag  Ag8680    1.0  0.78571  0.07143  0.00000  1.0000
  Ag  Ag8681    1.0  0.78571  0.10714  0.03571  1.0000
  Ag  Ag8682    1.0  0.82143  0.07143  0.03571  1.0000
  Ag  Ag8683    1.0  0.82143  0.10714  0.00000  1.0000
  Ag  Ag8684    1.0  0.78571  0.07143  0.07143  1.0000
  Ag  Ag8685    1.0  0.78571  0.10714  0.10714  1.0000
  Ag  Ag8686    1.0  0.82143  0.07143  0.10714  1.0000
  Ag  Ag8687    1.0  0.82143  0.10714  0.07143  1.0000
  Ag  Ag8688    1.0  0.78571  0.07143  0.14286  1.0000
  Ag  Ag8689    1.0  0.78571  0.10714  0.17857  1.0000
  Ag  Ag8690    1.0  0.82143  0.07143  0.17857  1.0000
  Ag  Ag8691    1.0  0.82143  0.10714  0.14286  1.0000
  Ag  Ag8692    1.0  0.78571  0.07143  0.21429  1.0000
  Ag  Ag8693    1.0  0.78571  0.10714  0.25000  1.0000
  Ag  Ag8694    1.0  0.82143  0.07143  0.25000  1.0000
  Ag  Ag8695    1.0  0.82143  0.10714  0.21429  1.0000
  Ag  Ag8696    1.0  0.78571  0.07143  0.28571  1.0000
  Ag  Ag8697    1.0  0.78571  0.10714  0.32143  1.0000
  Ag  Ag8698    1.0  0.82143  0.07143  0.32143  1.0000
  Ag  Ag8699    1.0  0.82143  0.10714  0.28571  1.0000
  Ag  Ag8700    1.0  0.78571  0.07143  0.35714  1.0000
  Ag  Ag8701    1.0  0.78571  0.10714  0.39286  1.0000
  Ag  Ag8702    1.0  0.82143  0.07143  0.39286  1.0000
  Ag  Ag8703    1.0  0.82143  0.10714  0.35714  1.0000
  Ag  Ag8704    1.0  0.78571  0.07143  0.42857  1.0000
  Ag  Ag8705    1.0  0.78571  0.10714  0.46429  1.0000
  Ag  Ag8706    1.0  0.82143  0.07143  0.46429  1.0000
  Ag  Ag8707    1.0  0.82143  0.10714  0.42857  1.0000
  Ag  Ag8708    1.0  0.78571  0.07143  0.50000  1.0000
  Ag  Ag8709    1.0  0.78571  0.10714  0.53571  1.0000
  Ag  Ag8710    1.0  0.82143  0.07143  0.53571  1.0000
  Ag  Ag8711    1.0  0.82143  0.10714  0.50000  1.0000
  Ag  Ag8712    1.0  0.78571  0.07143  0.57143  1.0000
  Ag  Ag8713    1.0  0.78571  0.10714  0.60714  1.0000
  Ag  Ag8714    1.0  0.82143  0.07143  0.60714  1.0000
  Ag  Ag8715    1.0  0.82143  0.10714  0.57143  1.0000
  Ag  Ag8716    1.0  0.78571  0.07143  0.64286  1.0000
  Ag  Ag8717    1.0  0.78571  0.10714  0.67857  1.0000
  Ag  Ag8718    1.0  0.82143  0.07143  0.67857  1.0000
  Ag  Ag8719    1.0  0.82143  0.10714  0.64286  1.0000
  Ag  Ag8720    1.0  0.78571  0.07143  0.71429  1.0000
  Ag  Ag8721    1.0  0.78571  0.10714  0.75000  1.0000
  Ag  Ag8722    1.0  0.82143  0.07143  0.75000  1.0000
  Ag  Ag8723    1.0  0.82143  0.10714  0.71429  1.0000
  Ag  Ag8724    1.0  0.78571  0.07143  0.78571  1.0000
  Ag  Ag8725    1.0  0.78571  0.10714  0.82143  1.0000
  Ag  Ag8726    1.0  0.82143  0.07143  0.82143  1.0000
  Ag  Ag8727    1.0  0.82143  0.10714  0.78571  1.0000
  Ag  Ag8728    1.0  0.78571  0.07143  0.85714  1.0000
  Ag  Ag8729    1.0  0.78571  0.10714  0.89286  1.0000
  Ag  Ag8730    1.0  0.82143  0.07143  0.89286  1.0000
  Ag  Ag8731    1.0  0.82143  0.10714  0.85714  1.0000
  Ag  Ag8732    1.0  0.78571  0.07143  0.92857  1.0000
  Ag  Ag8733    1.0  0.78571  0.10714  0.96429  1.0000
  Ag  Ag8734    1.0  0.82143  0.07143  0.96429  1.0000
  Ag  Ag8735    1.0  0.82143  0.10714  0.92857  1.0000
  Ag  Ag8736    1.0  0.78571  0.14286  0.00000  1.0000
  Ag  Ag8737    1.0  0.78571  0.17857  0.03571  1.0000
  Ag  Ag8738    1.0  0.82143  0.14286  0.03571  1.0000
  Ag  Ag8739    1.0  0.82143  0.17857  0.00000  1.0000
  Ag  Ag8740    1.0  0.78571  0.14286  0.07143  1.0000
  Ag  Ag8741    1.0  0.78571  0.17857  0.10714  1.0000
  Ag  Ag8742    1.0  0.82143  0.14286  0.10714  1.0000
  Ag  Ag8743    1.0  0.82143  0.17857  0.07143  1.0000
  Ag  Ag8744    1.0  0.78571  0.14286  0.14286  1.0000
  Ag  Ag8745    1.0  0.78571  0.17857  0.17857  1.0000
  Ag  Ag8746    1.0  0.82143  0.14286  0.17857  1.0000
  Ag  Ag8747    1.0  0.82143  0.17857  0.14286  1.0000
  Ag  Ag8748    1.0  0.78571  0.14286  0.21429  1.0000
  Ag  Ag8749    1.0  0.78571  0.17857  0.25000  1.0000
  Ag  Ag8750    1.0  0.82143  0.14286  0.25000  1.0000
  Ag  Ag8751    1.0  0.82143  0.17857  0.21429  1.0000
  Ag  Ag8752    1.0  0.78571  0.14286  0.28571  1.0000
  Ag  Ag8753    1.0  0.78571  0.17857  0.32143  1.0000
  Ag  Ag8754    1.0  0.82143  0.14286  0.32143  1.0000
  Ag  Ag8755    1.0  0.82143  0.17857  0.28571  1.0000
  Ag  Ag8756    1.0  0.78571  0.14286  0.35714  1.0000
  Ag  Ag8757    1.0  0.78571  0.17857  0.39286  1.0000
  Ag  Ag8758    1.0  0.82143  0.14286  0.39286  1.0000
  Ag  Ag8759    1.0  0.82143  0.17857  0.35714  1.0000
  Ag  Ag8760    1.0  0.78571  0.14286  0.42857  1.0000
  Ag  Ag8761    1.0  0.78571  0.17857  0.46429  1.0000
  Ag  Ag8762    1.0  0.82143  0.14286  0.46429  1.0000
  Ag  Ag8763    1.0  0.82143  0.17857  0.42857  1.0000
  Ag  Ag8764    1.0  0.78571  0.14286  0.50000  1.0000
  Ag  Ag8765    1.0  0.78571  0.17857  0.53571  1.0000
  Ag  Ag8766    1.0  0.82143  0.14286  0.53571  1.0000
  Ag  Ag8767    1.0  0.82143  0.17857  0.50000  1.0000
  Ag  Ag8768    1.0  0.78571  0.14286  0.57143  1.0000
  Ag  Ag8769    1.0  0.78571  0.17857  0.60714  1.0000
  Ag  Ag8770    1.0  0.82143  0.14286  0.60714  1.0000
  Ag  Ag8771    1.0  0.82143  0.17857  0.57143  1.0000
  Ag  Ag8772    1.0  0.78571  0.14286  0.64286  1.0000
  Ag  Ag8773    1.0  0.78571  0.17857  0.67857  1.0000
  Ag  Ag8774    1.0  0.82143  0.14286  0.67857  1.0000
  Ag  Ag8775    1.0  0.82143  0.17857  0.64286  1.0000
  Ag  Ag8776    1.0  0.78571  0.14286  0.71429  1.0000
  Ag  Ag8777    1.0  0.78571  0.17857  0.75000  1.0000
  Ag  Ag8778    1.0  0.82143  0.14286  0.75000  1.0000
  Ag  Ag8779    1.0  0.82143  0.17857  0.71429  1.0000
  Ag  Ag8780    1.0  0.78571  0.14286  0.78571  1.0000
  Ag  Ag8781    1.0  0.78571  0.17857  0.82143  1.0000
  Ag  Ag8782    1.0  0.82143  0.14286  0.82143  1.0000
  Ag  Ag8783    1.0  0.82143  0.17857  0.78571  1.0000
  Ag  Ag8784    1.0  0.78571  0.14286  0.85714  1.0000
  Ag  Ag8785    1.0  0.78571  0.17857  0.89286  1.0000
  Ag  Ag8786    1.0  0.82143  0.14286  0.89286  1.0000
  Ag  Ag8787    1.0  0.82143  0.17857  0.85714  1.0000
  Ag  Ag8788    1.0  0.78571  0.14286  0.92857  1.0000
  Ag  Ag8789    1.0  0.78571  0.17857  0.96429  1.0000
  Ag  Ag8790    1.0  0.82143  0.14286  0.96429  1.0000
  Ag  Ag8791    1.0  0.82143  0.17857  0.92857  1.0000
  Ag  Ag8792    1.0  0.78571  0.21429  0.00000  1.0000
  Ag  Ag8793    1.0  0.78571  0.25000  0.03571  1.0000
  Ag  Ag8794    1.0  0.82143  0.21429  0.03571  1.0000
  Ag  Ag8795    1.0  0.82143  0.25000  0.00000  1.0000
  Ag  Ag8796    1.0  0.78571  0.21429  0.07143  1.0000
  Ag  Ag8797    1.0  0.78571  0.25000  0.10714  1.0000
  Ag  Ag8798    1.0  0.82143  0.21429  0.10714  1.0000
  Ag  Ag8799    1.0  0.82143  0.25000  0.07143  1.0000
  Ag  Ag8800    1.0  0.78571  0.21429  0.14286  1.0000
  Ag  Ag8801    1.0  0.78571  0.25000  0.17857  1.0000
  Ag  Ag8802    1.0  0.82143  0.21429  0.17857  1.0000
  Ag  Ag8803    1.0  0.82143  0.25000  0.14286  1.0000
  Ag  Ag8804    1.0  0.78571  0.21429  0.21429  1.0000
  Ag  Ag8805    1.0  0.78571  0.25000  0.25000  1.0000
  Ag  Ag8806    1.0  0.82143  0.21429  0.25000  1.0000
  Ag  Ag8807    1.0  0.82143  0.25000  0.21429  1.0000
  Ag  Ag8808    1.0  0.78571  0.21429  0.28571  1.0000
  Ag  Ag8809    1.0  0.78571  0.25000  0.32143  1.0000
  Ag  Ag8810    1.0  0.82143  0.21429  0.32143  1.0000
  Ag  Ag8811    1.0  0.82143  0.25000  0.28571  1.0000
  Ag  Ag8812    1.0  0.78571  0.21429  0.35714  1.0000
  Ag  Ag8813    1.0  0.78571  0.25000  0.39286  1.0000
  Ag  Ag8814    1.0  0.82143  0.21429  0.39286  1.0000
  Ag  Ag8815    1.0  0.82143  0.25000  0.35714  1.0000
  Ag  Ag8816    1.0  0.78571  0.21429  0.42857  1.0000
  Ag  Ag8817    1.0  0.78571  0.25000  0.46429  1.0000
  Ag  Ag8818    1.0  0.82143  0.21429  0.46429  1.0000
  Ag  Ag8819    1.0  0.82143  0.25000  0.42857  1.0000
  Ag  Ag8820    1.0  0.78571  0.21429  0.50000  1.0000
  Ag  Ag8821    1.0  0.78571  0.25000  0.53571  1.0000
  Ag  Ag8822    1.0  0.82143  0.21429  0.53571  1.0000
  Ag  Ag8823    1.0  0.82143  0.25000  0.50000  1.0000
  Ag  Ag8824    1.0  0.78571  0.21429  0.57143  1.0000
  Ag  Ag8825    1.0  0.78571  0.25000  0.60714  1.0000
  Ag  Ag8826    1.0  0.82143  0.21429  0.60714  1.0000
  Ag  Ag8827    1.0  0.82143  0.25000  0.57143  1.0000
  Ag  Ag8828    1.0  0.78571  0.21429  0.64286  1.0000
  Ag  Ag8829    1.0  0.78571  0.25000  0.67857  1.0000
  Ag  Ag8830    1.0  0.82143  0.21429  0.67857  1.0000
  Ag  Ag8831    1.0  0.82143  0.25000  0.64286  1.0000
  Ag  Ag8832    1.0  0.78571  0.21429  0.71429  1.0000
  Ag  Ag8833    1.0  0.78571  0.25000  0.75000  1.0000
  Ag  Ag8834    1.0  0.82143  0.21429  0.75000  1.0000
  Ag  Ag8835    1.0  0.82143  0.25000  0.71429  1.0000
  Ag  Ag8836    1.0  0.78571  0.21429  0.78571  1.0000
  Ag  Ag8837    1.0  0.78571  0.25000  0.82143  1.0000
  Ag  Ag8838    1.0  0.82143  0.21429  0.82143  1.0000
  Ag  Ag8839    1.0  0.82143  0.25000  0.78571  1.0000
  Ag  Ag8840    1.0  0.78571  0.21429  0.85714  1.0000
  Ag  Ag8841    1.0  0.78571  0.25000  0.89286  1.0000
  Ag  Ag8842    1.0  0.82143  0.21429  0.89286  1.0000
  Ag  Ag8843    1.0  0.82143  0.25000  0.85714  1.0000
  Ag  Ag8844    1.0  0.78571  0.21429  0.92857  1.0000
  Ag  Ag8845    1.0  0.78571  0.25000  0.96429  1.0000
  Ag  Ag8846    1.0  0.82143  0.21429  0.96429  1.0000
  Ag  Ag8847    1.0  0.82143  0.25000  0.92857  1.0000
  Ag  Ag8848    1.0  0.78571  0.28571  0.00000  1.0000
  Ag  Ag8849    1.0  0.78571  0.32143  0.03571  1.0000
  Ag  Ag8850    1.0  0.82143  0.28571  0.03571  1.0000
  Ag  Ag8851    1.0  0.82143  0.32143  0.00000  1.0000
  Ag  Ag8852    1.0  0.78571  0.28571  0.07143  1.0000
  Ag  Ag8853    1.0  0.78571  0.32143  0.10714  1.0000
  Ag  Ag8854    1.0  0.82143  0.28571  0.10714  1.0000
  Ag  Ag8855    1.0  0.82143  0.32143  0.07143  1.0000
  Ag  Ag8856    1.0  0.78571  0.28571  0.14286  1.0000
  Ag  Ag8857    1.0  0.78571  0.32143  0.17857  1.0000
  Ag  Ag8858    1.0  0.82143  0.28571  0.17857  1.0000
  Ag  Ag8859    1.0  0.82143  0.32143  0.14286  1.0000
  Ag  Ag8860    1.0  0.78571  0.28571  0.21429  1.0000
  Ag  Ag8861    1.0  0.78571  0.32143  0.25000  1.0000
  Ag  Ag8862    1.0  0.82143  0.28571  0.25000  1.0000
  Ag  Ag8863    1.0  0.82143  0.32143  0.21429  1.0000
  Ag  Ag8864    1.0  0.78571  0.28571  0.28571  1.0000
  Ag  Ag8865    1.0  0.78571  0.32143  0.32143  1.0000
  Ag  Ag8866    1.0  0.82143  0.28571  0.32143  1.0000
  Ag  Ag8867    1.0  0.82143  0.32143  0.28571  1.0000
  Ag  Ag8868    1.0  0.78571  0.28571  0.35714  1.0000
  Ag  Ag8869    1.0  0.78571  0.32143  0.39286  1.0000
  Ag  Ag8870    1.0  0.82143  0.28571  0.39286  1.0000
  Ag  Ag8871    1.0  0.82143  0.32143  0.35714  1.0000
  Ag  Ag8872    1.0  0.78571  0.28571  0.42857  1.0000
  Ag  Ag8873    1.0  0.78571  0.32143  0.46429  1.0000
  Ag  Ag8874    1.0  0.82143  0.28571  0.46429  1.0000
  Ag  Ag8875    1.0  0.82143  0.32143  0.42857  1.0000
  Ag  Ag8876    1.0  0.78571  0.28571  0.50000  1.0000
  Ag  Ag8877    1.0  0.78571  0.32143  0.53571  1.0000
  Ag  Ag8878    1.0  0.82143  0.28571  0.53571  1.0000
  Ag  Ag8879    1.0  0.82143  0.32143  0.50000  1.0000
  Ag  Ag8880    1.0  0.78571  0.28571  0.57143  1.0000
  Ag  Ag8881    1.0  0.78571  0.32143  0.60714  1.0000
  Ag  Ag8882    1.0  0.82143  0.28571  0.60714  1.0000
  Ag  Ag8883    1.0  0.82143  0.32143  0.57143  1.0000
  Ag  Ag8884    1.0  0.78571  0.28571  0.64286  1.0000
  Ag  Ag8885    1.0  0.78571  0.32143  0.67857  1.0000
  Ag  Ag8886    1.0  0.82143  0.28571  0.67857  1.0000
  Ag  Ag8887    1.0  0.82143  0.32143  0.64286  1.0000
  Ag  Ag8888    1.0  0.78571  0.28571  0.71429  1.0000
  Ag  Ag8889    1.0  0.78571  0.32143  0.75000  1.0000
  Ag  Ag8890    1.0  0.82143  0.28571  0.75000  1.0000
  Ag  Ag8891    1.0  0.82143  0.32143  0.71429  1.0000
  Ag  Ag8892    1.0  0.78571  0.28571  0.78571  1.0000
  Ag  Ag8893    1.0  0.78571  0.32143  0.82143  1.0000
  Ag  Ag8894    1.0  0.82143  0.28571  0.82143  1.0000
  Ag  Ag8895    1.0  0.82143  0.32143  0.78571  1.0000
  Ag  Ag8896    1.0  0.78571  0.28571  0.85714  1.0000
  Ag  Ag8897    1.0  0.78571  0.32143  0.89286  1.0000
  Ag  Ag8898    1.0  0.82143  0.28571  0.89286  1.0000
  Ag  Ag8899    1.0  0.82143  0.32143  0.85714  1.0000
  Ag  Ag8900    1.0  0.78571  0.28571  0.92857  1.0000
  Ag  Ag8901    1.0  0.78571  0.32143  0.96429  1.0000
  Ag  Ag8902    1.0  0.82143  0.28571  0.96429  1.0000
  Ag  Ag8903    1.0  0.82143  0.32143  0.92857  1.0000
  Ag  Ag8904    1.0  0.78571  0.35714  0.00000  1.0000
  Ag  Ag8905    1.0  0.78571  0.39286  0.03571  1.0000
  Ag  Ag8906    1.0  0.82143  0.35714  0.03571  1.0000
  Ag  Ag8907    1.0  0.82143  0.39286  0.00000  1.0000
  Ag  Ag8908    1.0  0.78571  0.35714  0.07143  1.0000
  Ag  Ag8909    1.0  0.78571  0.39286  0.10714  1.0000
  Ag  Ag8910    1.0  0.82143  0.35714  0.10714  1.0000
  Ag  Ag8911    1.0  0.82143  0.39286  0.07143  1.0000
  Ag  Ag8912    1.0  0.78571  0.35714  0.14286  1.0000
  Ag  Ag8913    1.0  0.78571  0.39286  0.17857  1.0000
  Ag  Ag8914    1.0  0.82143  0.35714  0.17857  1.0000
  Ag  Ag8915    1.0  0.82143  0.39286  0.14286  1.0000
  Ag  Ag8916    1.0  0.78571  0.35714  0.21429  1.0000
  Ag  Ag8917    1.0  0.78571  0.39286  0.25000  1.0000
  Ag  Ag8918    1.0  0.82143  0.35714  0.25000  1.0000
  Ag  Ag8919    1.0  0.82143  0.39286  0.21429  1.0000
  Ag  Ag8920    1.0  0.78571  0.35714  0.28571  1.0000
  Ag  Ag8921    1.0  0.78571  0.39286  0.32143  1.0000
  Ag  Ag8922    1.0  0.82143  0.35714  0.32143  1.0000
  Ag  Ag8923    1.0  0.82143  0.39286  0.28571  1.0000
  Ag  Ag8924    1.0  0.78571  0.35714  0.35714  1.0000
  Ag  Ag8925    1.0  0.78571  0.39286  0.39286  1.0000
  Ag  Ag8926    1.0  0.82143  0.35714  0.39286  1.0000
  Ag  Ag8927    1.0  0.82143  0.39286  0.35714  1.0000
  Ag  Ag8928    1.0  0.78571  0.35714  0.42857  1.0000
  Ag  Ag8929    1.0  0.78571  0.39286  0.46429  1.0000
  Ag  Ag8930    1.0  0.82143  0.35714  0.46429  1.0000
  Ag  Ag8931    1.0  0.82143  0.39286  0.42857  1.0000
  Ag  Ag8932    1.0  0.78571  0.35714  0.50000  1.0000
  Ag  Ag8933    1.0  0.78571  0.39286  0.53571  1.0000
  Ag  Ag8934    1.0  0.82143  0.35714  0.53571  1.0000
  Ag  Ag8935    1.0  0.82143  0.39286  0.50000  1.0000
  Ag  Ag8936    1.0  0.78571  0.35714  0.57143  1.0000
  Ag  Ag8937    1.0  0.78571  0.39286  0.60714  1.0000
  Ag  Ag8938    1.0  0.82143  0.35714  0.60714  1.0000
  Ag  Ag8939    1.0  0.82143  0.39286  0.57143  1.0000
  Ag  Ag8940    1.0  0.78571  0.35714  0.64286  1.0000
  Ag  Ag8941    1.0  0.78571  0.39286  0.67857  1.0000
  Ag  Ag8942    1.0  0.82143  0.35714  0.67857  1.0000
  Ag  Ag8943    1.0  0.82143  0.39286  0.64286  1.0000
  Ag  Ag8944    1.0  0.78571  0.35714  0.71429  1.0000
  Ag  Ag8945    1.0  0.78571  0.39286  0.75000  1.0000
  Ag  Ag8946    1.0  0.82143  0.35714  0.75000  1.0000
  Ag  Ag8947    1.0  0.82143  0.39286  0.71429  1.0000
  Ag  Ag8948    1.0  0.78571  0.35714  0.78571  1.0000
  Ag  Ag8949    1.0  0.78571  0.39286  0.82143  1.0000
  Ag  Ag8950    1.0  0.82143  0.35714  0.82143  1.0000
  Ag  Ag8951    1.0  0.82143  0.39286  0.78571  1.0000
  Ag  Ag8952    1.0  0.78571  0.35714  0.85714  1.0000
  Ag  Ag8953    1.0  0.78571  0.39286  0.89286  1.0000
  Ag  Ag8954    1.0  0.82143  0.35714  0.89286  1.0000
  Ag  Ag8955    1.0  0.82143  0.39286  0.85714  1.0000
  Ag  Ag8956    1.0  0.78571  0.35714  0.92857  1.0000
  Ag  Ag8957    1.0  0.78571  0.39286  0.96429  1.0000
  Ag  Ag8958    1.0  0.82143  0.35714  0.96429  1.0000
  Ag  Ag8959    1.0  0.82143  0.39286  0.92857  1.0000
  Ag  Ag8960    1.0  0.78571  0.42857  0.00000  1.0000
  Ag  Ag8961    1.0  0.78571  0.46429  0.03571  1.0000
  Ag  Ag8962    1.0  0.82143  0.42857  0.03571  1.0000
  Ag  Ag8963    1.0  0.82143  0.46429  0.00000  1.0000
  Ag  Ag8964    1.0  0.78571  0.42857  0.07143  1.0000
  Ag  Ag8965    1.0  0.78571  0.46429  0.10714  1.0000
  Ag  Ag8966    1.0  0.82143  0.42857  0.10714  1.0000
  Ag  Ag8967    1.0  0.82143  0.46429  0.07143  1.0000
  Ag  Ag8968    1.0  0.78571  0.42857  0.14286  1.0000
  Ag  Ag8969    1.0  0.78571  0.46429  0.17857  1.0000
  Ag  Ag8970    1.0  0.82143  0.42857  0.17857  1.0000
  Ag  Ag8971    1.0  0.82143  0.46429  0.14286  1.0000
  Ag  Ag8972    1.0  0.78571  0.42857  0.21429  1.0000
  Ag  Ag8973    1.0  0.78571  0.46429  0.25000  1.0000
  Ag  Ag8974    1.0  0.82143  0.42857  0.25000  1.0000
  Ag  Ag8975    1.0  0.82143  0.46429  0.21429  1.0000
  Ag  Ag8976    1.0  0.78571  0.42857  0.28571  1.0000
  Ag  Ag8977    1.0  0.78571  0.46429  0.32143  1.0000
  Ag  Ag8978    1.0  0.82143  0.42857  0.32143  1.0000
  Ag  Ag8979    1.0  0.82143  0.46429  0.28571  1.0000
  Ag  Ag8980    1.0  0.78571  0.42857  0.35714  1.0000
  Ag  Ag8981    1.0  0.78571  0.46429  0.39286  1.0000
  Ag  Ag8982    1.0  0.82143  0.42857  0.39286  1.0000
  Ag  Ag8983    1.0  0.82143  0.46429  0.35714  1.0000
  Ag  Ag8984    1.0  0.78571  0.42857  0.42857  1.0000
  Ag  Ag8985    1.0  0.78571  0.46429  0.46429  1.0000
  Ag  Ag8986    1.0  0.82143  0.42857  0.46429  1.0000
  Ag  Ag8987    1.0  0.82143  0.46429  0.42857  1.0000
  Ag  Ag8988    1.0  0.78571  0.42857  0.50000  1.0000
  Ag  Ag8989    1.0  0.78571  0.46429  0.53571  1.0000
  Ag  Ag8990    1.0  0.82143  0.42857  0.53571  1.0000
  Ag  Ag8991    1.0  0.82143  0.46429  0.50000  1.0000
  Ag  Ag8992    1.0  0.78571  0.42857  0.57143  1.0000
  Ag  Ag8993    1.0  0.78571  0.46429  0.60714  1.0000
  Ag  Ag8994    1.0  0.82143  0.42857  0.60714  1.0000
  Ag  Ag8995    1.0  0.82143  0.46429  0.57143  1.0000
  Ag  Ag8996    1.0  0.78571  0.42857  0.64286  1.0000
  Ag  Ag8997    1.0  0.78571  0.46429  0.67857  1.0000
  Ag  Ag8998    1.0  0.82143  0.42857  0.67857  1.0000
  Ag  Ag8999    1.0  0.82143  0.46429  0.64286  1.0000
  Ag  Ag9000    1.0  0.78571  0.42857  0.71429  1.0000
  Ag  Ag9001    1.0  0.78571  0.46429  0.75000  1.0000
  Ag  Ag9002    1.0  0.82143  0.42857  0.75000  1.0000
  Ag  Ag9003    1.0  0.82143  0.46429  0.71429  1.0000
  Ag  Ag9004    1.0  0.78571  0.42857  0.78571  1.0000
  Ag  Ag9005    1.0  0.78571  0.46429  0.82143  1.0000
  Ag  Ag9006    1.0  0.82143  0.42857  0.82143  1.0000
  Ag  Ag9007    1.0  0.82143  0.46429  0.78571  1.0000
  Ag  Ag9008    1.0  0.78571  0.42857  0.85714  1.0000
  Ag  Ag9009    1.0  0.78571  0.46429  0.89286  1.0000
  Ag  Ag9010    1.0  0.82143  0.42857  0.89286  1.0000
  Ag  Ag9011    1.0  0.82143  0.46429  0.85714  1.0000
  Ag  Ag9012    1.0  0.78571  0.42857  0.92857  1.0000
  Ag  Ag9013    1.0  0.78571  0.46429  0.96429  1.0000
  Ag  Ag9014    1.0  0.82143  0.42857  0.96429  1.0000
  Ag  Ag9015    1.0  0.82143  0.46429  0.92857  1.0000
  Ag  Ag9016    1.0  0.78571  0.50000  0.00000  1.0000
  Ag  Ag9017    1.0  0.78571  0.53571  0.03571  1.0000
  Ag  Ag9018    1.0  0.82143  0.50000  0.03571  1.0000
  Ag  Ag9019    1.0  0.82143  0.53571  0.00000  1.0000
  Ag  Ag9020    1.0  0.78571  0.50000  0.07143  1.0000
  Ag  Ag9021    1.0  0.78571  0.53571  0.10714  1.0000
  Ag  Ag9022    1.0  0.82143  0.50000  0.10714  1.0000
  Ag  Ag9023    1.0  0.82143  0.53571  0.07143  1.0000
  Ag  Ag9024    1.0  0.78571  0.50000  0.14286  1.0000
  Ag  Ag9025    1.0  0.78571  0.53571  0.17857  1.0000
  Ag  Ag9026    1.0  0.82143  0.50000  0.17857  1.0000
  Ag  Ag9027    1.0  0.82143  0.53571  0.14286  1.0000
  Ag  Ag9028    1.0  0.78571  0.50000  0.21429  1.0000
  Ag  Ag9029    1.0  0.78571  0.53571  0.25000  1.0000
  Ag  Ag9030    1.0  0.82143  0.50000  0.25000  1.0000
  Ag  Ag9031    1.0  0.82143  0.53571  0.21429  1.0000
  Ag  Ag9032    1.0  0.78571  0.50000  0.28571  1.0000
  Ag  Ag9033    1.0  0.78571  0.53571  0.32143  1.0000
  Ag  Ag9034    1.0  0.82143  0.50000  0.32143  1.0000
  Ag  Ag9035    1.0  0.82143  0.53571  0.28571  1.0000
  Ag  Ag9036    1.0  0.78571  0.50000  0.35714  1.0000
  Ag  Ag9037    1.0  0.78571  0.53571  0.39286  1.0000
  Ag  Ag9038    1.0  0.82143  0.50000  0.39286  1.0000
  Ag  Ag9039    1.0  0.82143  0.53571  0.35714  1.0000
  Ag  Ag9040    1.0  0.78571  0.50000  0.42857  1.0000
  Ag  Ag9041    1.0  0.78571  0.53571  0.46429  1.0000
  Ag  Ag9042    1.0  0.82143  0.50000  0.46429  1.0000
  Ag  Ag9043    1.0  0.82143  0.53571  0.42857  1.0000
  Ag  Ag9044    1.0  0.78571  0.50000  0.50000  1.0000
  Ag  Ag9045    1.0  0.78571  0.53571  0.53571  1.0000
  Ag  Ag9046    1.0  0.82143  0.50000  0.53571  1.0000
  Ag  Ag9047    1.0  0.82143  0.53571  0.50000  1.0000
  Ag  Ag9048    1.0  0.78571  0.50000  0.57143  1.0000
  Ag  Ag9049    1.0  0.78571  0.53571  0.60714  1.0000
  Ag  Ag9050    1.0  0.82143  0.50000  0.60714  1.0000
  Ag  Ag9051    1.0  0.82143  0.53571  0.57143  1.0000
  Ag  Ag9052    1.0  0.78571  0.50000  0.64286  1.0000
  Ag  Ag9053    1.0  0.78571  0.53571  0.67857  1.0000
  Ag  Ag9054    1.0  0.82143  0.50000  0.67857  1.0000
  Ag  Ag9055    1.0  0.82143  0.53571  0.64286  1.0000
  Ag  Ag9056    1.0  0.78571  0.50000  0.71429  1.0000
  Ag  Ag9057    1.0  0.78571  0.53571  0.75000  1.0000
  Ag  Ag9058    1.0  0.82143  0.50000  0.75000  1.0000
  Ag  Ag9059    1.0  0.82143  0.53571  0.71429  1.0000
  Ag  Ag9060    1.0  0.78571  0.50000  0.78571  1.0000
  Ag  Ag9061    1.0  0.78571  0.53571  0.82143  1.0000
  Ag  Ag9062    1.0  0.82143  0.50000  0.82143  1.0000
  Ag  Ag9063    1.0  0.82143  0.53571  0.78571  1.0000
  Ag  Ag9064    1.0  0.78571  0.50000  0.85714  1.0000
  Ag  Ag9065    1.0  0.78571  0.53571  0.89286  1.0000
  Ag  Ag9066    1.0  0.82143  0.50000  0.89286  1.0000
  Ag  Ag9067    1.0  0.82143  0.53571  0.85714  1.0000
  Ag  Ag9068    1.0  0.78571  0.50000  0.92857  1.0000
  Ag  Ag9069    1.0  0.78571  0.53571  0.96429  1.0000
  Ag  Ag9070    1.0  0.82143  0.50000  0.96429  1.0000
  Ag  Ag9071    1.0  0.82143  0.53571  0.92857  1.0000
  Ag  Ag9072    1.0  0.78571  0.57143  0.00000  1.0000
  Ag  Ag9073    1.0  0.78571  0.60714  0.03571  1.0000
  Ag  Ag9074    1.0  0.82143  0.57143  0.03571  1.0000
  Ag  Ag9075    1.0  0.82143  0.60714  0.00000  1.0000
  Ag  Ag9076    1.0  0.78571  0.57143  0.07143  1.0000
  Ag  Ag9077    1.0  0.78571  0.60714  0.10714  1.0000
  Ag  Ag9078    1.0  0.82143  0.57143  0.10714  1.0000
  Ag  Ag9079    1.0  0.82143  0.60714  0.07143  1.0000
  Ag  Ag9080    1.0  0.78571  0.57143  0.14286  1.0000
  Ag  Ag9081    1.0  0.78571  0.60714  0.17857  1.0000
  Ag  Ag9082    1.0  0.82143  0.57143  0.17857  1.0000
  Ag  Ag9083    1.0  0.82143  0.60714  0.14286  1.0000
  Ag  Ag9084    1.0  0.78571  0.57143  0.21429  1.0000
  Ag  Ag9085    1.0  0.78571  0.60714  0.25000  1.0000
  Ag  Ag9086    1.0  0.82143  0.57143  0.25000  1.0000
  Ag  Ag9087    1.0  0.82143  0.60714  0.21429  1.0000
  Ag  Ag9088    1.0  0.78571  0.57143  0.28571  1.0000
  Ag  Ag9089    1.0  0.78571  0.60714  0.32143  1.0000
  Ag  Ag9090    1.0  0.82143  0.57143  0.32143  1.0000
  Ag  Ag9091    1.0  0.82143  0.60714  0.28571  1.0000
  Ag  Ag9092    1.0  0.78571  0.57143  0.35714  1.0000
  Ag  Ag9093    1.0  0.78571  0.60714  0.39286  1.0000
  Ag  Ag9094    1.0  0.82143  0.57143  0.39286  1.0000
  Ag  Ag9095    1.0  0.82143  0.60714  0.35714  1.0000
  Ag  Ag9096    1.0  0.78571  0.57143  0.42857  1.0000
  Ag  Ag9097    1.0  0.78571  0.60714  0.46429  1.0000
  Ag  Ag9098    1.0  0.82143  0.57143  0.46429  1.0000
  Ag  Ag9099    1.0  0.82143  0.60714  0.42857  1.0000
  Ag  Ag9100    1.0  0.78571  0.57143  0.50000  1.0000
  Ag  Ag9101    1.0  0.78571  0.60714  0.53571  1.0000
  Ag  Ag9102    1.0  0.82143  0.57143  0.53571  1.0000
  Ag  Ag9103    1.0  0.82143  0.60714  0.50000  1.0000
  Ag  Ag9104    1.0  0.78571  0.57143  0.57143  1.0000
  Ag  Ag9105    1.0  0.78571  0.60714  0.60714  1.0000
  Ag  Ag9106    1.0  0.82143  0.57143  0.60714  1.0000
  Ag  Ag9107    1.0  0.82143  0.60714  0.57143  1.0000
  Ag  Ag9108    1.0  0.78571  0.57143  0.64286  1.0000
  Ag  Ag9109    1.0  0.78571  0.60714  0.67857  1.0000
  Ag  Ag9110    1.0  0.82143  0.57143  0.67857  1.0000
  Ag  Ag9111    1.0  0.82143  0.60714  0.64286  1.0000
  Ag  Ag9112    1.0  0.78571  0.57143  0.71429  1.0000
  Ag  Ag9113    1.0  0.78571  0.60714  0.75000  1.0000
  Ag  Ag9114    1.0  0.82143  0.57143  0.75000  1.0000
  Ag  Ag9115    1.0  0.82143  0.60714  0.71429  1.0000
  Ag  Ag9116    1.0  0.78571  0.57143  0.78571  1.0000
  Ag  Ag9117    1.0  0.78571  0.60714  0.82143  1.0000
  Ag  Ag9118    1.0  0.82143  0.57143  0.82143  1.0000
  Ag  Ag9119    1.0  0.82143  0.60714  0.78571  1.0000
  Ag  Ag9120    1.0  0.78571  0.57143  0.85714  1.0000
  Ag  Ag9121    1.0  0.78571  0.60714  0.89286  1.0000
  Ag  Ag9122    1.0  0.82143  0.57143  0.89286  1.0000
  Ag  Ag9123    1.0  0.82143  0.60714  0.85714  1.0000
  Ag  Ag9124    1.0  0.78571  0.57143  0.92857  1.0000
  Ag  Ag9125    1.0  0.78571  0.60714  0.96429  1.0000
  Ag  Ag9126    1.0  0.82143  0.57143  0.96429  1.0000
  Ag  Ag9127    1.0  0.82143  0.60714  0.92857  1.0000
  Ag  Ag9128    1.0  0.78571  0.64286  0.00000  1.0000
  Ag  Ag9129    1.0  0.78571  0.67857  0.03571  1.0000
  Ag  Ag9130    1.0  0.82143  0.64286  0.03571  1.0000
  Ag  Ag9131    1.0  0.82143  0.67857  0.00000  1.0000
  Ag  Ag9132    1.0  0.78571  0.64286  0.07143  1.0000
  Ag  Ag9133    1.0  0.78571  0.67857  0.10714  1.0000
  Ag  Ag9134    1.0  0.82143  0.64286  0.10714  1.0000
  Ag  Ag9135    1.0  0.82143  0.67857  0.07143  1.0000
  Ag  Ag9136    1.0  0.78571  0.64286  0.14286  1.0000
  Ag  Ag9137    1.0  0.78571  0.67857  0.17857  1.0000
  Ag  Ag9138    1.0  0.82143  0.64286  0.17857  1.0000
  Ag  Ag9139    1.0  0.82143  0.67857  0.14286  1.0000
  Ag  Ag9140    1.0  0.78571  0.64286  0.21429  1.0000
  Ag  Ag9141    1.0  0.78571  0.67857  0.25000  1.0000
  Ag  Ag9142    1.0  0.82143  0.64286  0.25000  1.0000
  Ag  Ag9143    1.0  0.82143  0.67857  0.21429  1.0000
  Ag  Ag9144    1.0  0.78571  0.64286  0.28571  1.0000
  Ag  Ag9145    1.0  0.78571  0.67857  0.32143  1.0000
  Ag  Ag9146    1.0  0.82143  0.64286  0.32143  1.0000
  Ag  Ag9147    1.0  0.82143  0.67857  0.28571  1.0000
  Ag  Ag9148    1.0  0.78571  0.64286  0.35714  1.0000
  Ag  Ag9149    1.0  0.78571  0.67857  0.39286  1.0000
  Ag  Ag9150    1.0  0.82143  0.64286  0.39286  1.0000
  Ag  Ag9151    1.0  0.82143  0.67857  0.35714  1.0000
  Ag  Ag9152    1.0  0.78571  0.64286  0.42857  1.0000
  Ag  Ag9153    1.0  0.78571  0.67857  0.46429  1.0000
  Ag  Ag9154    1.0  0.82143  0.64286  0.46429  1.0000
  Ag  Ag9155    1.0  0.82143  0.67857  0.42857  1.0000
  Ag  Ag9156    1.0  0.78571  0.64286  0.50000  1.0000
  Ag  Ag9157    1.0  0.78571  0.67857  0.53571  1.0000
  Ag  Ag9158    1.0  0.82143  0.64286  0.53571  1.0000
  Ag  Ag9159    1.0  0.82143  0.67857  0.50000  1.0000
  Ag  Ag9160    1.0  0.78571  0.64286  0.57143  1.0000
  Ag  Ag9161    1.0  0.78571  0.67857  0.60714  1.0000
  Ag  Ag9162    1.0  0.82143  0.64286  0.60714  1.0000
  Ag  Ag9163    1.0  0.82143  0.67857  0.57143  1.0000
  Ag  Ag9164    1.0  0.78571  0.64286  0.64286  1.0000
  Ag  Ag9165    1.0  0.78571  0.67857  0.67857  1.0000
  Ag  Ag9166    1.0  0.82143  0.64286  0.67857  1.0000
  Ag  Ag9167    1.0  0.82143  0.67857  0.64286  1.0000
  Ag  Ag9168    1.0  0.78571  0.64286  0.71429  1.0000
  Ag  Ag9169    1.0  0.78571  0.67857  0.75000  1.0000
  Ag  Ag9170    1.0  0.82143  0.64286  0.75000  1.0000
  Ag  Ag9171    1.0  0.82143  0.67857  0.71429  1.0000
  Ag  Ag9172    1.0  0.78571  0.64286  0.78571  1.0000
  Ag  Ag9173    1.0  0.78571  0.67857  0.82143  1.0000
  Ag  Ag9174    1.0  0.82143  0.64286  0.82143  1.0000
  Ag  Ag9175    1.0  0.82143  0.67857  0.78571  1.0000
  Ag  Ag9176    1.0  0.78571  0.64286  0.85714  1.0000
  Ag  Ag9177    1.0  0.78571  0.67857  0.89286  1.0000
  Ag  Ag9178    1.0  0.82143  0.64286  0.89286  1.0000
  Ag  Ag9179    1.0  0.82143  0.67857  0.85714  1.0000
  Ag  Ag9180    1.0  0.78571  0.64286  0.92857  1.0000
  Ag  Ag9181    1.0  0.78571  0.67857  0.96429  1.0000
  Ag  Ag9182    1.0  0.82143  0.64286  0.96429  1.0000
  Ag  Ag9183    1.0  0.82143  0.67857  0.92857  1.0000
  Ag  Ag9184    1.0  0.78571  0.71429  0.00000  1.0000
  Ag  Ag9185    1.0  0.78571  0.75000  0.03571  1.0000
  Ag  Ag9186    1.0  0.82143  0.71429  0.03571  1.0000
  Ag  Ag9187    1.0  0.82143  0.75000  0.00000  1.0000
  Ag  Ag9188    1.0  0.78571  0.71429  0.07143  1.0000
  Ag  Ag9189    1.0  0.78571  0.75000  0.10714  1.0000
  Ag  Ag9190    1.0  0.82143  0.71429  0.10714  1.0000
  Ag  Ag9191    1.0  0.82143  0.75000  0.07143  1.0000
  Ag  Ag9192    1.0  0.78571  0.71429  0.14286  1.0000
  Ag  Ag9193    1.0  0.78571  0.75000  0.17857  1.0000
  Ag  Ag9194    1.0  0.82143  0.71429  0.17857  1.0000
  Ag  Ag9195    1.0  0.82143  0.75000  0.14286  1.0000
  Ag  Ag9196    1.0  0.78571  0.71429  0.21429  1.0000
  Ag  Ag9197    1.0  0.78571  0.75000  0.25000  1.0000
  Ag  Ag9198    1.0  0.82143  0.71429  0.25000  1.0000
  Ag  Ag9199    1.0  0.82143  0.75000  0.21429  1.0000
  Ag  Ag9200    1.0  0.78571  0.71429  0.28571  1.0000
  Ag  Ag9201    1.0  0.78571  0.75000  0.32143  1.0000
  Ag  Ag9202    1.0  0.82143  0.71429  0.32143  1.0000
  Ag  Ag9203    1.0  0.82143  0.75000  0.28571  1.0000
  Ag  Ag9204    1.0  0.78571  0.71429  0.35714  1.0000
  Ag  Ag9205    1.0  0.78571  0.75000  0.39286  1.0000
  Ag  Ag9206    1.0  0.82143  0.71429  0.39286  1.0000
  Ag  Ag9207    1.0  0.82143  0.75000  0.35714  1.0000
  Ag  Ag9208    1.0  0.78571  0.71429  0.42857  1.0000
  Ag  Ag9209    1.0  0.78571  0.75000  0.46429  1.0000
  Ag  Ag9210    1.0  0.82143  0.71429  0.46429  1.0000
  Ag  Ag9211    1.0  0.82143  0.75000  0.42857  1.0000
  Ag  Ag9212    1.0  0.78571  0.71429  0.50000  1.0000
  Ag  Ag9213    1.0  0.78571  0.75000  0.53571  1.0000
  Ag  Ag9214    1.0  0.82143  0.71429  0.53571  1.0000
  Ag  Ag9215    1.0  0.82143  0.75000  0.50000  1.0000
  Ag  Ag9216    1.0  0.78571  0.71429  0.57143  1.0000
  Ag  Ag9217    1.0  0.78571  0.75000  0.60714  1.0000
  Ag  Ag9218    1.0  0.82143  0.71429  0.60714  1.0000
  Ag  Ag9219    1.0  0.82143  0.75000  0.57143  1.0000
  Ag  Ag9220    1.0  0.78571  0.71429  0.64286  1.0000
  Ag  Ag9221    1.0  0.78571  0.75000  0.67857  1.0000
  Ag  Ag9222    1.0  0.82143  0.71429  0.67857  1.0000
  Ag  Ag9223    1.0  0.82143  0.75000  0.64286  1.0000
  Ag  Ag9224    1.0  0.78571  0.71429  0.71429  1.0000
  Ag  Ag9225    1.0  0.78571  0.75000  0.75000  1.0000
  Ag  Ag9226    1.0  0.82143  0.71429  0.75000  1.0000
  Ag  Ag9227    1.0  0.82143  0.75000  0.71429  1.0000
  Ag  Ag9228    1.0  0.78571  0.71429  0.78571  1.0000
  Ag  Ag9229    1.0  0.78571  0.75000  0.82143  1.0000
  Ag  Ag9230    1.0  0.82143  0.71429  0.82143  1.0000
  Ag  Ag9231    1.0  0.82143  0.75000  0.78571  1.0000
  Ag  Ag9232    1.0  0.78571  0.71429  0.85714  1.0000
  Ag  Ag9233    1.0  0.78571  0.75000  0.89286  1.0000
  Ag  Ag9234    1.0  0.82143  0.71429  0.89286  1.0000
  Ag  Ag9235    1.0  0.82143  0.75000  0.85714  1.0000
  Ag  Ag9236    1.0  0.78571  0.71429  0.92857  1.0000
  Ag  Ag9237    1.0  0.78571  0.75000  0.96429  1.0000
  Ag  Ag9238    1.0  0.82143  0.71429  0.96429  1.0000
  Ag  Ag9239    1.0  0.82143  0.75000  0.92857  1.0000
  Ag  Ag9240    1.0  0.78571  0.78571  0.00000  1.0000
  Ag  Ag9241    1.0  0.78571  0.82143  0.03571  1.0000
  Ag  Ag9242    1.0  0.82143  0.78571  0.03571  1.0000
  Ag  Ag9243    1.0  0.82143  0.82143  0.00000  1.0000
  Ag  Ag9244    1.0  0.78571  0.78571  0.07143  1.0000
  Ag  Ag9245    1.0  0.78571  0.82143  0.10714  1.0000
  Ag  Ag9246    1.0  0.82143  0.78571  0.10714  1.0000
  Ag  Ag9247    1.0  0.82143  0.82143  0.07143  1.0000
  Ag  Ag9248    1.0  0.78571  0.78571  0.14286  1.0000
  Ag  Ag9249    1.0  0.78571  0.82143  0.17857  1.0000
  Ag  Ag9250    1.0  0.82143  0.78571  0.17857  1.0000
  Ag  Ag9251    1.0  0.82143  0.82143  0.14286  1.0000
  Ag  Ag9252    1.0  0.78571  0.78571  0.21429  1.0000
  Ag  Ag9253    1.0  0.78571  0.82143  0.25000  1.0000
  Ag  Ag9254    1.0  0.82143  0.78571  0.25000  1.0000
  Ag  Ag9255    1.0  0.82143  0.82143  0.21429  1.0000
  Ag  Ag9256    1.0  0.78571  0.78571  0.28571  1.0000
  Ag  Ag9257    1.0  0.78571  0.82143  0.32143  1.0000
  Ag  Ag9258    1.0  0.82143  0.78571  0.32143  1.0000
  Ag  Ag9259    1.0  0.82143  0.82143  0.28571  1.0000
  Ag  Ag9260    1.0  0.78571  0.78571  0.35714  1.0000
  Ag  Ag9261    1.0  0.78571  0.82143  0.39286  1.0000
  Ag  Ag9262    1.0  0.82143  0.78571  0.39286  1.0000
  Ag  Ag9263    1.0  0.82143  0.82143  0.35714  1.0000
  Ag  Ag9264    1.0  0.78571  0.78571  0.42857  1.0000
  Ag  Ag9265    1.0  0.78571  0.82143  0.46429  1.0000
  Ag  Ag9266    1.0  0.82143  0.78571  0.46429  1.0000
  Ag  Ag9267    1.0  0.82143  0.82143  0.42857  1.0000
  Ag  Ag9268    1.0  0.78571  0.78571  0.50000  1.0000
  Ag  Ag9269    1.0  0.78571  0.82143  0.53571  1.0000
  Ag  Ag9270    1.0  0.82143  0.78571  0.53571  1.0000
  Ag  Ag9271    1.0  0.82143  0.82143  0.50000  1.0000
  Ag  Ag9272    1.0  0.78571  0.78571  0.57143  1.0000
  Ag  Ag9273    1.0  0.78571  0.82143  0.60714  1.0000
  Ag  Ag9274    1.0  0.82143  0.78571  0.60714  1.0000
  Ag  Ag9275    1.0  0.82143  0.82143  0.57143  1.0000
  Ag  Ag9276    1.0  0.78571  0.78571  0.64286  1.0000
  Ag  Ag9277    1.0  0.78571  0.82143  0.67857  1.0000
  Ag  Ag9278    1.0  0.82143  0.78571  0.67857  1.0000
  Ag  Ag9279    1.0  0.82143  0.82143  0.64286  1.0000
  Ag  Ag9280    1.0  0.78571  0.78571  0.71429  1.0000
  Ag  Ag9281    1.0  0.78571  0.82143  0.75000  1.0000
  Ag  Ag9282    1.0  0.82143  0.78571  0.75000  1.0000
  Ag  Ag9283    1.0  0.82143  0.82143  0.71429  1.0000
  Ag  Ag9284    1.0  0.78571  0.78571  0.78571  1.0000
  Ag  Ag9285    1.0  0.78571  0.82143  0.82143  1.0000
  Ag  Ag9286    1.0  0.82143  0.78571  0.82143  1.0000
  Ag  Ag9287    1.0  0.82143  0.82143  0.78571  1.0000
  Ag  Ag9288    1.0  0.78571  0.78571  0.85714  1.0000
  Ag  Ag9289    1.0  0.78571  0.82143  0.89286  1.0000
  Ag  Ag9290    1.0  0.82143  0.78571  0.89286  1.0000
  Ag  Ag9291    1.0  0.82143  0.82143  0.85714  1.0000
  Ag  Ag9292    1.0  0.78571  0.78571  0.92857  1.0000
  Ag  Ag9293    1.0  0.78571  0.82143  0.96429  1.0000
  Ag  Ag9294    1.0  0.82143  0.78571  0.96429  1.0000
  Ag  Ag9295    1.0  0.82143  0.82143  0.92857  1.0000
  Ag  Ag9296    1.0  0.78571  0.85714  0.00000  1.0000
  Ag  Ag9297    1.0  0.78571  0.89286  0.03571  1.0000
  Ag  Ag9298    1.0  0.82143  0.85714  0.03571  1.0000
  Ag  Ag9299    1.0  0.82143  0.89286  0.00000  1.0000
  Ag  Ag9300    1.0  0.78571  0.85714  0.07143  1.0000
  Ag  Ag9301    1.0  0.78571  0.89286  0.10714  1.0000
  Ag  Ag9302    1.0  0.82143  0.85714  0.10714  1.0000
  Ag  Ag9303    1.0  0.82143  0.89286  0.07143  1.0000
  Ag  Ag9304    1.0  0.78571  0.85714  0.14286  1.0000
  Ag  Ag9305    1.0  0.78571  0.89286  0.17857  1.0000
  Ag  Ag9306    1.0  0.82143  0.85714  0.17857  1.0000
  Ag  Ag9307    1.0  0.82143  0.89286  0.14286  1.0000
  Ag  Ag9308    1.0  0.78571  0.85714  0.21429  1.0000
  Ag  Ag9309    1.0  0.78571  0.89286  0.25000  1.0000
  Ag  Ag9310    1.0  0.82143  0.85714  0.25000  1.0000
  Ag  Ag9311    1.0  0.82143  0.89286  0.21429  1.0000
  Ag  Ag9312    1.0  0.78571  0.85714  0.28571  1.0000
  Ag  Ag9313    1.0  0.78571  0.89286  0.32143  1.0000
  Ag  Ag9314    1.0  0.82143  0.85714  0.32143  1.0000
  Ag  Ag9315    1.0  0.82143  0.89286  0.28571  1.0000
  Ag  Ag9316    1.0  0.78571  0.85714  0.35714  1.0000
  Ag  Ag9317    1.0  0.78571  0.89286  0.39286  1.0000
  Ag  Ag9318    1.0  0.82143  0.85714  0.39286  1.0000
  Ag  Ag9319    1.0  0.82143  0.89286  0.35714  1.0000
  Ag  Ag9320    1.0  0.78571  0.85714  0.42857  1.0000
  Ag  Ag9321    1.0  0.78571  0.89286  0.46429  1.0000
  Ag  Ag9322    1.0  0.82143  0.85714  0.46429  1.0000
  Ag  Ag9323    1.0  0.82143  0.89286  0.42857  1.0000
  Ag  Ag9324    1.0  0.78571  0.85714  0.50000  1.0000
  Ag  Ag9325    1.0  0.78571  0.89286  0.53571  1.0000
  Ag  Ag9326    1.0  0.82143  0.85714  0.53571  1.0000
  Ag  Ag9327    1.0  0.82143  0.89286  0.50000  1.0000
  Ag  Ag9328    1.0  0.78571  0.85714  0.57143  1.0000
  Ag  Ag9329    1.0  0.78571  0.89286  0.60714  1.0000
  Ag  Ag9330    1.0  0.82143  0.85714  0.60714  1.0000
  Ag  Ag9331    1.0  0.82143  0.89286  0.57143  1.0000
  Ag  Ag9332    1.0  0.78571  0.85714  0.64286  1.0000
  Ag  Ag9333    1.0  0.78571  0.89286  0.67857  1.0000
  Ag  Ag9334    1.0  0.82143  0.85714  0.67857  1.0000
  Ag  Ag9335    1.0  0.82143  0.89286  0.64286  1.0000
  Ag  Ag9336    1.0  0.78571  0.85714  0.71429  1.0000
  Ag  Ag9337    1.0  0.78571  0.89286  0.75000  1.0000
  Ag  Ag9338    1.0  0.82143  0.85714  0.75000  1.0000
  Ag  Ag9339    1.0  0.82143  0.89286  0.71429  1.0000
  Ag  Ag9340    1.0  0.78571  0.85714  0.78571  1.0000
  Ag  Ag9341    1.0  0.78571  0.89286  0.82143  1.0000
  Ag  Ag9342    1.0  0.82143  0.85714  0.82143  1.0000
  Ag  Ag9343    1.0  0.82143  0.89286  0.78571  1.0000
  Ag  Ag9344    1.0  0.78571  0.85714  0.85714  1.0000
  Ag  Ag9345    1.0  0.78571  0.89286  0.89286  1.0000
  Ag  Ag9346    1.0  0.82143  0.85714  0.89286  1.0000
  Ag  Ag9347    1.0  0.82143  0.89286  0.85714  1.0000
  Ag  Ag9348    1.0  0.78571  0.85714  0.92857  1.0000
  Ag  Ag9349    1.0  0.78571  0.89286  0.96429  1.0000
  Ag  Ag9350    1.0  0.82143  0.85714  0.96429  1.0000
  Ag  Ag9351    1.0  0.82143  0.89286  0.92857  1.0000
  Ag  Ag9352    1.0  0.78571  0.92857  0.00000  1.0000
  Ag  Ag9353    1.0  0.78571  0.96429  0.03571  1.0000
  Ag  Ag9354    1.0  0.82143  0.92857  0.03571  1.0000
  Ag  Ag9355    1.0  0.82143  0.96429  0.00000  1.0000
  Ag  Ag9356    1.0  0.78571  0.92857  0.07143  1.0000
  Ag  Ag9357    1.0  0.78571  0.96429  0.10714  1.0000
  Ag  Ag9358    1.0  0.82143  0.92857  0.10714  1.0000
  Ag  Ag9359    1.0  0.82143  0.96429  0.07143  1.0000
  Ag  Ag9360    1.0  0.78571  0.92857  0.14286  1.0000
  Ag  Ag9361    1.0  0.78571  0.96429  0.17857  1.0000
  Ag  Ag9362    1.0  0.82143  0.92857  0.17857  1.0000
  Ag  Ag9363    1.0  0.82143  0.96429  0.14286  1.0000
  Ag  Ag9364    1.0  0.78571  0.92857  0.21429  1.0000
  Ag  Ag9365    1.0  0.78571  0.96429  0.25000  1.0000
  Ag  Ag9366    1.0  0.82143  0.92857  0.25000  1.0000
  Ag  Ag9367    1.0  0.82143  0.96429  0.21429  1.0000
  Ag  Ag9368    1.0  0.78571  0.92857  0.28571  1.0000
  Ag  Ag9369    1.0  0.78571  0.96429  0.32143  1.0000
  Ag  Ag9370    1.0  0.82143  0.92857  0.32143  1.0000
  Ag  Ag9371    1.0  0.82143  0.96429  0.28571  1.0000
  Ag  Ag9372    1.0  0.78571  0.92857  0.35714  1.0000
  Ag  Ag9373    1.0  0.78571  0.96429  0.39286  1.0000
  Ag  Ag9374    1.0  0.82143  0.92857  0.39286  1.0000
  Ag  Ag9375    1.0  0.82143  0.96429  0.35714  1.0000
  Ag  Ag9376    1.0  0.78571  0.92857  0.42857  1.0000
  Ag  Ag9377    1.0  0.78571  0.96429  0.46429  1.0000
  Ag  Ag9378    1.0  0.82143  0.92857  0.46429  1.0000
  Ag  Ag9379    1.0  0.82143  0.96429  0.42857  1.0000
  Ag  Ag9380    1.0  0.78571  0.92857  0.50000  1.0000
  Ag  Ag9381    1.0  0.78571  0.96429  0.53571  1.0000
  Ag  Ag9382    1.0  0.82143  0.92857  0.53571  1.0000
  Ag  Ag9383    1.0  0.82143  0.96429  0.50000  1.0000
  Ag  Ag9384    1.0  0.78571  0.92857  0.57143  1.0000
  Ag  Ag9385    1.0  0.78571  0.96429  0.60714  1.0000
  Ag  Ag9386    1.0  0.82143  0.92857  0.60714  1.0000
  Ag  Ag9387    1.0  0.82143  0.96429  0.57143  1.0000
  Ag  Ag9388    1.0  0.78571  0.92857  0.64286  1.0000
  Ag  Ag9389    1.0  0.78571  0.96429  0.67857  1.0000
  Ag  Ag9390    1.0  0.82143  0.92857  0.67857  1.0000
  Ag  Ag9391    1.0  0.82143  0.96429  0.64286  1.0000
  Ag  Ag9392    1.0  0.78571  0.92857  0.71429  1.0000
  Ag  Ag9393    1.0  0.78571  0.96429  0.75000  1.0000
  Ag  Ag9394    1.0  0.82143  0.92857  0.75000  1.0000
  Ag  Ag9395    1.0  0.82143  0.96429  0.71429  1.0000
  Ag  Ag9396    1.0  0.78571  0.92857  0.78571  1.0000
  Ag  Ag9397    1.0  0.78571  0.96429  0.82143  1.0000
  Ag  Ag9398    1.0  0.82143  0.92857  0.82143  1.0000
  Ag  Ag9399    1.0  0.82143  0.96429  0.78571  1.0000
  Ag  Ag9400    1.0  0.78571  0.92857  0.85714  1.0000
  Ag  Ag9401    1.0  0.78571  0.96429  0.89286  1.0000
  Ag  Ag9402    1.0  0.82143  0.92857  0.89286  1.0000
  Ag  Ag9403    1.0  0.82143  0.96429  0.85714  1.0000
  Ag  Ag9404    1.0  0.78571  0.92857  0.92857  1.0000
  Ag  Ag9405    1.0  0.78571  0.96429  0.96429  1.0000
  Ag  Ag9406    1.0  0.82143  0.92857  0.96429  1.0000
  Ag  Ag9407    1.0  0.82143  0.96429  0.92857  1.0000
  Ag  Ag9408    1.0  0.85714  0.00000  0.00000  1.0000
  Ag  Ag9409    1.0  0.85714  0.03571  0.03571  1.0000
  Ag  Ag9410    1.0  0.89286  0.00000  0.03571  1.0000
  Ag  Ag9411    1.0  0.89286  0.03571  0.00000  1.0000
  Ag  Ag9412    1.0  0.85714  0.00000  0.07143  1.0000
  Ag  Ag9413    1.0  0.85714  0.03571  0.10714  1.0000
  Ag  Ag9414    1.0  0.89286  0.00000  0.10714  1.0000
  Ag  Ag9415    1.0  0.89286  0.03571  0.07143  1.0000
  Ag  Ag9416    1.0  0.85714  0.00000  0.14286  1.0000
  Ag  Ag9417    1.0  0.85714  0.03571  0.17857  1.0000
  Ag  Ag9418    1.0  0.89286  0.00000  0.17857  1.0000
  Ag  Ag9419    1.0  0.89286  0.03571  0.14286  1.0000
  Ag  Ag9420    1.0  0.85714  0.00000  0.21429  1.0000
  Ag  Ag9421    1.0  0.85714  0.03571  0.25000  1.0000
  Ag  Ag9422    1.0  0.89286  0.00000  0.25000  1.0000
  Ag  Ag9423    1.0  0.89286  0.03571  0.21429  1.0000
  Ag  Ag9424    1.0  0.85714  0.00000  0.28571  1.0000
  Ag  Ag9425    1.0  0.85714  0.03571  0.32143  1.0000
  Ag  Ag9426    1.0  0.89286  0.00000  0.32143  1.0000
  Ag  Ag9427    1.0  0.89286  0.03571  0.28571  1.0000
  Ag  Ag9428    1.0  0.85714  0.00000  0.35714  1.0000
  Ag  Ag9429    1.0  0.85714  0.03571  0.39286  1.0000
  Ag  Ag9430    1.0  0.89286  0.00000  0.39286  1.0000
  Ag  Ag9431    1.0  0.89286  0.03571  0.35714  1.0000
  Ag  Ag9432    1.0  0.85714  0.00000  0.42857  1.0000
  Ag  Ag9433    1.0  0.85714  0.03571  0.46429  1.0000
  Ag  Ag9434    1.0  0.89286  0.00000  0.46429  1.0000
  Ag  Ag9435    1.0  0.89286  0.03571  0.42857  1.0000
  Ag  Ag9436    1.0  0.85714  0.00000  0.50000  1.0000
  Ag  Ag9437    1.0  0.85714  0.03571  0.53571  1.0000
  Ag  Ag9438    1.0  0.89286  0.00000  0.53571  1.0000
  Ag  Ag9439    1.0  0.89286  0.03571  0.50000  1.0000
  Ag  Ag9440    1.0  0.85714  0.00000  0.57143  1.0000
  Ag  Ag9441    1.0  0.85714  0.03571  0.60714  1.0000
  Ag  Ag9442    1.0  0.89286  0.00000  0.60714  1.0000
  Ag  Ag9443    1.0  0.89286  0.03571  0.57143  1.0000
  Ag  Ag9444    1.0  0.85714  0.00000  0.64286  1.0000
  Ag  Ag9445    1.0  0.85714  0.03571  0.67857  1.0000
  Ag  Ag9446    1.0  0.89286  0.00000  0.67857  1.0000
  Ag  Ag9447    1.0  0.89286  0.03571  0.64286  1.0000
  Ag  Ag9448    1.0  0.85714  0.00000  0.71429  1.0000
  Ag  Ag9449    1.0  0.85714  0.03571  0.75000  1.0000
  Ag  Ag9450    1.0  0.89286  0.00000  0.75000  1.0000
  Ag  Ag9451    1.0  0.89286  0.03571  0.71429  1.0000
  Ag  Ag9452    1.0  0.85714  0.00000  0.78571  1.0000
  Ag  Ag9453    1.0  0.85714  0.03571  0.82143  1.0000
  Ag  Ag9454    1.0  0.89286  0.00000  0.82143  1.0000
  Ag  Ag9455    1.0  0.89286  0.03571  0.78571  1.0000
  Ag  Ag9456    1.0  0.85714  0.00000  0.85714  1.0000
  Ag  Ag9457    1.0  0.85714  0.03571  0.89286  1.0000
  Ag  Ag9458    1.0  0.89286  0.00000  0.89286  1.0000
  Ag  Ag9459    1.0  0.89286  0.03571  0.85714  1.0000
  Ag  Ag9460    1.0  0.85714  0.00000  0.92857  1.0000
  Ag  Ag9461    1.0  0.85714  0.03571  0.96429  1.0000
  Ag  Ag9462    1.0  0.89286  0.00000  0.96429  1.0000
  Ag  Ag9463    1.0  0.89286  0.03571  0.92857  1.0000
  Ag  Ag9464    1.0  0.85714  0.07143  0.00000  1.0000
  Ag  Ag9465    1.0  0.85714  0.10714  0.03571  1.0000
  Ag  Ag9466    1.0  0.89286  0.07143  0.03571  1.0000
  Ag  Ag9467    1.0  0.89286  0.10714  0.00000  1.0000
  Ag  Ag9468    1.0  0.85714  0.07143  0.07143  1.0000
  Ag  Ag9469    1.0  0.85714  0.10714  0.10714  1.0000
  Ag  Ag9470    1.0  0.89286  0.07143  0.10714  1.0000
  Ag  Ag9471    1.0  0.89286  0.10714  0.07143  1.0000
  Ag  Ag9472    1.0  0.85714  0.07143  0.14286  1.0000
  Ag  Ag9473    1.0  0.85714  0.10714  0.17857  1.0000
  Ag  Ag9474    1.0  0.89286  0.07143  0.17857  1.0000
  Ag  Ag9475    1.0  0.89286  0.10714  0.14286  1.0000
  Ag  Ag9476    1.0  0.85714  0.07143  0.21429  1.0000
  Ag  Ag9477    1.0  0.85714  0.10714  0.25000  1.0000
  Ag  Ag9478    1.0  0.89286  0.07143  0.25000  1.0000
  Ag  Ag9479    1.0  0.89286  0.10714  0.21429  1.0000
  Ag  Ag9480    1.0  0.85714  0.07143  0.28571  1.0000
  Ag  Ag9481    1.0  0.85714  0.10714  0.32143  1.0000
  Ag  Ag9482    1.0  0.89286  0.07143  0.32143  1.0000
  Ag  Ag9483    1.0  0.89286  0.10714  0.28571  1.0000
  Ag  Ag9484    1.0  0.85714  0.07143  0.35714  1.0000
  Ag  Ag9485    1.0  0.85714  0.10714  0.39286  1.0000
  Ag  Ag9486    1.0  0.89286  0.07143  0.39286  1.0000
  Ag  Ag9487    1.0  0.89286  0.10714  0.35714  1.0000
  Ag  Ag9488    1.0  0.85714  0.07143  0.42857  1.0000
  Ag  Ag9489    1.0  0.85714  0.10714  0.46429  1.0000
  Ag  Ag9490    1.0  0.89286  0.07143  0.46429  1.0000
  Ag  Ag9491    1.0  0.89286  0.10714  0.42857  1.0000
  Ag  Ag9492    1.0  0.85714  0.07143  0.50000  1.0000
  Ag  Ag9493    1.0  0.85714  0.10714  0.53571  1.0000
  Ag  Ag9494    1.0  0.89286  0.07143  0.53571  1.0000
  Ag  Ag9495    1.0  0.89286  0.10714  0.50000  1.0000
  Ag  Ag9496    1.0  0.85714  0.07143  0.57143  1.0000
  Ag  Ag9497    1.0  0.85714  0.10714  0.60714  1.0000
  Ag  Ag9498    1.0  0.89286  0.07143  0.60714  1.0000
  Ag  Ag9499    1.0  0.89286  0.10714  0.57143  1.0000
  Ag  Ag9500    1.0  0.85714  0.07143  0.64286  1.0000
  Ag  Ag9501    1.0  0.85714  0.10714  0.67857  1.0000
  Ag  Ag9502    1.0  0.89286  0.07143  0.67857  1.0000
  Ag  Ag9503    1.0  0.89286  0.10714  0.64286  1.0000
  Ag  Ag9504    1.0  0.85714  0.07143  0.71429  1.0000
  Ag  Ag9505    1.0  0.85714  0.10714  0.75000  1.0000
  Ag  Ag9506    1.0  0.89286  0.07143  0.75000  1.0000
  Ag  Ag9507    1.0  0.89286  0.10714  0.71429  1.0000
  Ag  Ag9508    1.0  0.85714  0.07143  0.78571  1.0000
  Ag  Ag9509    1.0  0.85714  0.10714  0.82143  1.0000
  Ag  Ag9510    1.0  0.89286  0.07143  0.82143  1.0000
  Ag  Ag9511    1.0  0.89286  0.10714  0.78571  1.0000
  Ag  Ag9512    1.0  0.85714  0.07143  0.85714  1.0000
  Ag  Ag9513    1.0  0.85714  0.10714  0.89286  1.0000
  Ag  Ag9514    1.0  0.89286  0.07143  0.89286  1.0000
  Ag  Ag9515    1.0  0.89286  0.10714  0.85714  1.0000
  Ag  Ag9516    1.0  0.85714  0.07143  0.92857  1.0000
  Ag  Ag9517    1.0  0.85714  0.10714  0.96429  1.0000
  Ag  Ag9518    1.0  0.89286  0.07143  0.96429  1.0000
  Ag  Ag9519    1.0  0.89286  0.10714  0.92857  1.0000
  Ag  Ag9520    1.0  0.85714  0.14286  0.00000  1.0000
  Ag  Ag9521    1.0  0.85714  0.17857  0.03571  1.0000
  Ag  Ag9522    1.0  0.89286  0.14286  0.03571  1.0000
  Ag  Ag9523    1.0  0.89286  0.17857  0.00000  1.0000
  Ag  Ag9524    1.0  0.85714  0.14286  0.07143  1.0000
  Ag  Ag9525    1.0  0.85714  0.17857  0.10714  1.0000
  Ag  Ag9526    1.0  0.89286  0.14286  0.10714  1.0000
  Ag  Ag9527    1.0  0.89286  0.17857  0.07143  1.0000
  Ag  Ag9528    1.0  0.85714  0.14286  0.14286  1.0000
  Ag  Ag9529    1.0  0.85714  0.17857  0.17857  1.0000
  Ag  Ag9530    1.0  0.89286  0.14286  0.17857  1.0000
  Ag  Ag9531    1.0  0.89286  0.17857  0.14286  1.0000
  Ag  Ag9532    1.0  0.85714  0.14286  0.21429  1.0000
  Ag  Ag9533    1.0  0.85714  0.17857  0.25000  1.0000
  Ag  Ag9534    1.0  0.89286  0.14286  0.25000  1.0000
  Ag  Ag9535    1.0  0.89286  0.17857  0.21429  1.0000
  Ag  Ag9536    1.0  0.85714  0.14286  0.28571  1.0000
  Ag  Ag9537    1.0  0.85714  0.17857  0.32143  1.0000
  Ag  Ag9538    1.0  0.89286  0.14286  0.32143  1.0000
  Ag  Ag9539    1.0  0.89286  0.17857  0.28571  1.0000
  Ag  Ag9540    1.0  0.85714  0.14286  0.35714  1.0000
  Ag  Ag9541    1.0  0.85714  0.17857  0.39286  1.0000
  Ag  Ag9542    1.0  0.89286  0.14286  0.39286  1.0000
  Ag  Ag9543    1.0  0.89286  0.17857  0.35714  1.0000
  Ag  Ag9544    1.0  0.85714  0.14286  0.42857  1.0000
  Ag  Ag9545    1.0  0.85714  0.17857  0.46429  1.0000
  Ag  Ag9546    1.0  0.89286  0.14286  0.46429  1.0000
  Ag  Ag9547    1.0  0.89286  0.17857  0.42857  1.0000
  Ag  Ag9548    1.0  0.85714  0.14286  0.50000  1.0000
  Ag  Ag9549    1.0  0.85714  0.17857  0.53571  1.0000
  Ag  Ag9550    1.0  0.89286  0.14286  0.53571  1.0000
  Ag  Ag9551    1.0  0.89286  0.17857  0.50000  1.0000
  Ag  Ag9552    1.0  0.85714  0.14286  0.57143  1.0000
  Ag  Ag9553    1.0  0.85714  0.17857  0.60714  1.0000
  Ag  Ag9554    1.0  0.89286  0.14286  0.60714  1.0000
  Ag  Ag9555    1.0  0.89286  0.17857  0.57143  1.0000
  Ag  Ag9556    1.0  0.85714  0.14286  0.64286  1.0000
  Ag  Ag9557    1.0  0.85714  0.17857  0.67857  1.0000
  Ag  Ag9558    1.0  0.89286  0.14286  0.67857  1.0000
  Ag  Ag9559    1.0  0.89286  0.17857  0.64286  1.0000
  Ag  Ag9560    1.0  0.85714  0.14286  0.71429  1.0000
  Ag  Ag9561    1.0  0.85714  0.17857  0.75000  1.0000
  Ag  Ag9562    1.0  0.89286  0.14286  0.75000  1.0000
  Ag  Ag9563    1.0  0.89286  0.17857  0.71429  1.0000
  Ag  Ag9564    1.0  0.85714  0.14286  0.78571  1.0000
  Ag  Ag9565    1.0  0.85714  0.17857  0.82143  1.0000
  Ag  Ag9566    1.0  0.89286  0.14286  0.82143  1.0000
  Ag  Ag9567    1.0  0.89286  0.17857  0.78571  1.0000
  Ag  Ag9568    1.0  0.85714  0.14286  0.85714  1.0000
  Ag  Ag9569    1.0  0.85714  0.17857  0.89286  1.0000
  Ag  Ag9570    1.0  0.89286  0.14286  0.89286  1.0000
  Ag  Ag9571    1.0  0.89286  0.17857  0.85714  1.0000
  Ag  Ag9572    1.0  0.85714  0.14286  0.92857  1.0000
  Ag  Ag9573    1.0  0.85714  0.17857  0.96429  1.0000
  Ag  Ag9574    1.0  0.89286  0.14286  0.96429  1.0000
  Ag  Ag9575    1.0  0.89286  0.17857  0.92857  1.0000
  Ag  Ag9576    1.0  0.85714  0.21429  0.00000  1.0000
  Ag  Ag9577    1.0  0.85714  0.25000  0.03571  1.0000
  Ag  Ag9578    1.0  0.89286  0.21429  0.03571  1.0000
  Ag  Ag9579    1.0  0.89286  0.25000  0.00000  1.0000
  Ag  Ag9580    1.0  0.85714  0.21429  0.07143  1.0000
  Ag  Ag9581    1.0  0.85714  0.25000  0.10714  1.0000
  Ag  Ag9582    1.0  0.89286  0.21429  0.10714  1.0000
  Ag  Ag9583    1.0  0.89286  0.25000  0.07143  1.0000
  Ag  Ag9584    1.0  0.85714  0.21429  0.14286  1.0000
  Ag  Ag9585    1.0  0.85714  0.25000  0.17857  1.0000
  Ag  Ag9586    1.0  0.89286  0.21429  0.17857  1.0000
  Ag  Ag9587    1.0  0.89286  0.25000  0.14286  1.0000
  Ag  Ag9588    1.0  0.85714  0.21429  0.21429  1.0000
  Ag  Ag9589    1.0  0.85714  0.25000  0.25000  1.0000
  Ag  Ag9590    1.0  0.89286  0.21429  0.25000  1.0000
  Ag  Ag9591    1.0  0.89286  0.25000  0.21429  1.0000
  Ag  Ag9592    1.0  0.85714  0.21429  0.28571  1.0000
  Ag  Ag9593    1.0  0.85714  0.25000  0.32143  1.0000
  Ag  Ag9594    1.0  0.89286  0.21429  0.32143  1.0000
  Ag  Ag9595    1.0  0.89286  0.25000  0.28571  1.0000
  Ag  Ag9596    1.0  0.85714  0.21429  0.35714  1.0000
  Ag  Ag9597    1.0  0.85714  0.25000  0.39286  1.0000
  Ag  Ag9598    1.0  0.89286  0.21429  0.39286  1.0000
  Ag  Ag9599    1.0  0.89286  0.25000  0.35714  1.0000
  Ag  Ag9600    1.0  0.85714  0.21429  0.42857  1.0000
  Ag  Ag9601    1.0  0.85714  0.25000  0.46429  1.0000
  Ag  Ag9602    1.0  0.89286  0.21429  0.46429  1.0000
  Ag  Ag9603    1.0  0.89286  0.25000  0.42857  1.0000
  Ag  Ag9604    1.0  0.85714  0.21429  0.50000  1.0000
  Ag  Ag9605    1.0  0.85714  0.25000  0.53571  1.0000
  Ag  Ag9606    1.0  0.89286  0.21429  0.53571  1.0000
  Ag  Ag9607    1.0  0.89286  0.25000  0.50000  1.0000
  Ag  Ag9608    1.0  0.85714  0.21429  0.57143  1.0000
  Ag  Ag9609    1.0  0.85714  0.25000  0.60714  1.0000
  Ag  Ag9610    1.0  0.89286  0.21429  0.60714  1.0000
  Ag  Ag9611    1.0  0.89286  0.25000  0.57143  1.0000
  Ag  Ag9612    1.0  0.85714  0.21429  0.64286  1.0000
  Ag  Ag9613    1.0  0.85714  0.25000  0.67857  1.0000
  Ag  Ag9614    1.0  0.89286  0.21429  0.67857  1.0000
  Ag  Ag9615    1.0  0.89286  0.25000  0.64286  1.0000
  Ag  Ag9616    1.0  0.85714  0.21429  0.71429  1.0000
  Ag  Ag9617    1.0  0.85714  0.25000  0.75000  1.0000
  Ag  Ag9618    1.0  0.89286  0.21429  0.75000  1.0000
  Ag  Ag9619    1.0  0.89286  0.25000  0.71429  1.0000
  Ag  Ag9620    1.0  0.85714  0.21429  0.78571  1.0000
  Ag  Ag9621    1.0  0.85714  0.25000  0.82143  1.0000
  Ag  Ag9622    1.0  0.89286  0.21429  0.82143  1.0000
  Ag  Ag9623    1.0  0.89286  0.25000  0.78571  1.0000
  Ag  Ag9624    1.0  0.85714  0.21429  0.85714  1.0000
  Ag  Ag9625    1.0  0.85714  0.25000  0.89286  1.0000
  Ag  Ag9626    1.0  0.89286  0.21429  0.89286  1.0000
  Ag  Ag9627    1.0  0.89286  0.25000  0.85714  1.0000
  Ag  Ag9628    1.0  0.85714  0.21429  0.92857  1.0000
  Ag  Ag9629    1.0  0.85714  0.25000  0.96429  1.0000
  Ag  Ag9630    1.0  0.89286  0.21429  0.96429  1.0000
  Ag  Ag9631    1.0  0.89286  0.25000  0.92857  1.0000
  Ag  Ag9632    1.0  0.85714  0.28571  0.00000  1.0000
  Ag  Ag9633    1.0  0.85714  0.32143  0.03571  1.0000
  Ag  Ag9634    1.0  0.89286  0.28571  0.03571  1.0000
  Ag  Ag9635    1.0  0.89286  0.32143  0.00000  1.0000
  Ag  Ag9636    1.0  0.85714  0.28571  0.07143  1.0000
  Ag  Ag9637    1.0  0.85714  0.32143  0.10714  1.0000
  Ag  Ag9638    1.0  0.89286  0.28571  0.10714  1.0000
  Ag  Ag9639    1.0  0.89286  0.32143  0.07143  1.0000
  Ag  Ag9640    1.0  0.85714  0.28571  0.14286  1.0000
  Ag  Ag9641    1.0  0.85714  0.32143  0.17857  1.0000
  Ag  Ag9642    1.0  0.89286  0.28571  0.17857  1.0000
  Ag  Ag9643    1.0  0.89286  0.32143  0.14286  1.0000
  Ag  Ag9644    1.0  0.85714  0.28571  0.21429  1.0000
  Ag  Ag9645    1.0  0.85714  0.32143  0.25000  1.0000
  Ag  Ag9646    1.0  0.89286  0.28571  0.25000  1.0000
  Ag  Ag9647    1.0  0.89286  0.32143  0.21429  1.0000
  Ag  Ag9648    1.0  0.85714  0.28571  0.28571  1.0000
  Ag  Ag9649    1.0  0.85714  0.32143  0.32143  1.0000
  Ag  Ag9650    1.0  0.89286  0.28571  0.32143  1.0000
  Ag  Ag9651    1.0  0.89286  0.32143  0.28571  1.0000
  Ag  Ag9652    1.0  0.85714  0.28571  0.35714  1.0000
  Ag  Ag9653    1.0  0.85714  0.32143  0.39286  1.0000
  Ag  Ag9654    1.0  0.89286  0.28571  0.39286  1.0000
  Ag  Ag9655    1.0  0.89286  0.32143  0.35714  1.0000
  Ag  Ag9656    1.0  0.85714  0.28571  0.42857  1.0000
  Ag  Ag9657    1.0  0.85714  0.32143  0.46429  1.0000
  Ag  Ag9658    1.0  0.89286  0.28571  0.46429  1.0000
  Ag  Ag9659    1.0  0.89286  0.32143  0.42857  1.0000
  Ag  Ag9660    1.0  0.85714  0.28571  0.50000  1.0000
  Ag  Ag9661    1.0  0.85714  0.32143  0.53571  1.0000
  Ag  Ag9662    1.0  0.89286  0.28571  0.53571  1.0000
  Ag  Ag9663    1.0  0.89286  0.32143  0.50000  1.0000
  Ag  Ag9664    1.0  0.85714  0.28571  0.57143  1.0000
  Ag  Ag9665    1.0  0.85714  0.32143  0.60714  1.0000
  Ag  Ag9666    1.0  0.89286  0.28571  0.60714  1.0000
  Ag  Ag9667    1.0  0.89286  0.32143  0.57143  1.0000
  Ag  Ag9668    1.0  0.85714  0.28571  0.64286  1.0000
  Ag  Ag9669    1.0  0.85714  0.32143  0.67857  1.0000
  Ag  Ag9670    1.0  0.89286  0.28571  0.67857  1.0000
  Ag  Ag9671    1.0  0.89286  0.32143  0.64286  1.0000
  Ag  Ag9672    1.0  0.85714  0.28571  0.71429  1.0000
  Ag  Ag9673    1.0  0.85714  0.32143  0.75000  1.0000
  Ag  Ag9674    1.0  0.89286  0.28571  0.75000  1.0000
  Ag  Ag9675    1.0  0.89286  0.32143  0.71429  1.0000
  Ag  Ag9676    1.0  0.85714  0.28571  0.78571  1.0000
  Ag  Ag9677    1.0  0.85714  0.32143  0.82143  1.0000
  Ag  Ag9678    1.0  0.89286  0.28571  0.82143  1.0000
  Ag  Ag9679    1.0  0.89286  0.32143  0.78571  1.0000
  Ag  Ag9680    1.0  0.85714  0.28571  0.85714  1.0000
  Ag  Ag9681    1.0  0.85714  0.32143  0.89286  1.0000
  Ag  Ag9682    1.0  0.89286  0.28571  0.89286  1.0000
  Ag  Ag9683    1.0  0.89286  0.32143  0.85714  1.0000
  Ag  Ag9684    1.0  0.85714  0.28571  0.92857  1.0000
  Ag  Ag9685    1.0  0.85714  0.32143  0.96429  1.0000
  Ag  Ag9686    1.0  0.89286  0.28571  0.96429  1.0000
  Ag  Ag9687    1.0  0.89286  0.32143  0.92857  1.0000
  Ag  Ag9688    1.0  0.85714  0.35714  0.00000  1.0000
  Ag  Ag9689    1.0  0.85714  0.39286  0.03571  1.0000
  Ag  Ag9690    1.0  0.89286  0.35714  0.03571  1.0000
  Ag  Ag9691    1.0  0.89286  0.39286  0.00000  1.0000
  Ag  Ag9692    1.0  0.85714  0.35714  0.07143  1.0000
  Ag  Ag9693    1.0  0.85714  0.39286  0.10714  1.0000
  Ag  Ag9694    1.0  0.89286  0.35714  0.10714  1.0000
  Ag  Ag9695    1.0  0.89286  0.39286  0.07143  1.0000
  Ag  Ag9696    1.0  0.85714  0.35714  0.14286  1.0000
  Ag  Ag9697    1.0  0.85714  0.39286  0.17857  1.0000
  Ag  Ag9698    1.0  0.89286  0.35714  0.17857  1.0000
  Ag  Ag9699    1.0  0.89286  0.39286  0.14286  1.0000
  Ag  Ag9700    1.0  0.85714  0.35714  0.21429  1.0000
  Ag  Ag9701    1.0  0.85714  0.39286  0.25000  1.0000
  Ag  Ag9702    1.0  0.89286  0.35714  0.25000  1.0000
  Ag  Ag9703    1.0  0.89286  0.39286  0.21429  1.0000
  Ag  Ag9704    1.0  0.85714  0.35714  0.28571  1.0000
  Ag  Ag9705    1.0  0.85714  0.39286  0.32143  1.0000
  Ag  Ag9706    1.0  0.89286  0.35714  0.32143  1.0000
  Ag  Ag9707    1.0  0.89286  0.39286  0.28571  1.0000
  Ag  Ag9708    1.0  0.85714  0.35714  0.35714  1.0000
  Ag  Ag9709    1.0  0.85714  0.39286  0.39286  1.0000
  Ag  Ag9710    1.0  0.89286  0.35714  0.39286  1.0000
  Ag  Ag9711    1.0  0.89286  0.39286  0.35714  1.0000
  Ag  Ag9712    1.0  0.85714  0.35714  0.42857  1.0000
  Ag  Ag9713    1.0  0.85714  0.39286  0.46429  1.0000
  Ag  Ag9714    1.0  0.89286  0.35714  0.46429  1.0000
  Ag  Ag9715    1.0  0.89286  0.39286  0.42857  1.0000
  Ag  Ag9716    1.0  0.85714  0.35714  0.50000  1.0000
  Ag  Ag9717    1.0  0.85714  0.39286  0.53571  1.0000
  Ag  Ag9718    1.0  0.89286  0.35714  0.53571  1.0000
  Ag  Ag9719    1.0  0.89286  0.39286  0.50000  1.0000
  Ag  Ag9720    1.0  0.85714  0.35714  0.57143  1.0000
  Ag  Ag9721    1.0  0.85714  0.39286  0.60714  1.0000
  Ag  Ag9722    1.0  0.89286  0.35714  0.60714  1.0000
  Ag  Ag9723    1.0  0.89286  0.39286  0.57143  1.0000
  Ag  Ag9724    1.0  0.85714  0.35714  0.64286  1.0000
  Ag  Ag9725    1.0  0.85714  0.39286  0.67857  1.0000
  Ag  Ag9726    1.0  0.89286  0.35714  0.67857  1.0000
  Ag  Ag9727    1.0  0.89286  0.39286  0.64286  1.0000
  Ag  Ag9728    1.0  0.85714  0.35714  0.71429  1.0000
  Ag  Ag9729    1.0  0.85714  0.39286  0.75000  1.0000
  Ag  Ag9730    1.0  0.89286  0.35714  0.75000  1.0000
  Ag  Ag9731    1.0  0.89286  0.39286  0.71429  1.0000
  Ag  Ag9732    1.0  0.85714  0.35714  0.78571  1.0000
  Ag  Ag9733    1.0  0.85714  0.39286  0.82143  1.0000
  Ag  Ag9734    1.0  0.89286  0.35714  0.82143  1.0000
  Ag  Ag9735    1.0  0.89286  0.39286  0.78571  1.0000
  Ag  Ag9736    1.0  0.85714  0.35714  0.85714  1.0000
  Ag  Ag9737    1.0  0.85714  0.39286  0.89286  1.0000
  Ag  Ag9738    1.0  0.89286  0.35714  0.89286  1.0000
  Ag  Ag9739    1.0  0.89286  0.39286  0.85714  1.0000
  Ag  Ag9740    1.0  0.85714  0.35714  0.92857  1.0000
  Ag  Ag9741    1.0  0.85714  0.39286  0.96429  1.0000
  Ag  Ag9742    1.0  0.89286  0.35714  0.96429  1.0000
  Ag  Ag9743    1.0  0.89286  0.39286  0.92857  1.0000
  Ag  Ag9744    1.0  0.85714  0.42857  0.00000  1.0000
  Ag  Ag9745    1.0  0.85714  0.46429  0.03571  1.0000
  Ag  Ag9746    1.0  0.89286  0.42857  0.03571  1.0000
  Ag  Ag9747    1.0  0.89286  0.46429  0.00000  1.0000
  Ag  Ag9748    1.0  0.85714  0.42857  0.07143  1.0000
  Ag  Ag9749    1.0  0.85714  0.46429  0.10714  1.0000
  Ag  Ag9750    1.0  0.89286  0.42857  0.10714  1.0000
  Ag  Ag9751    1.0  0.89286  0.46429  0.07143  1.0000
  Ag  Ag9752    1.0  0.85714  0.42857  0.14286  1.0000
  Ag  Ag9753    1.0  0.85714  0.46429  0.17857  1.0000
  Ag  Ag9754    1.0  0.89286  0.42857  0.17857  1.0000
  Ag  Ag9755    1.0  0.89286  0.46429  0.14286  1.0000
  Ag  Ag9756    1.0  0.85714  0.42857  0.21429  1.0000
  Ag  Ag9757    1.0  0.85714  0.46429  0.25000  1.0000
  Ag  Ag9758    1.0  0.89286  0.42857  0.25000  1.0000
  Ag  Ag9759    1.0  0.89286  0.46429  0.21429  1.0000
  Ag  Ag9760    1.0  0.85714  0.42857  0.28571  1.0000
  Ag  Ag9761    1.0  0.85714  0.46429  0.32143  1.0000
  Ag  Ag9762    1.0  0.89286  0.42857  0.32143  1.0000
  Ag  Ag9763    1.0  0.89286  0.46429  0.28571  1.0000
  Ag  Ag9764    1.0  0.85714  0.42857  0.35714  1.0000
  Ag  Ag9765    1.0  0.85714  0.46429  0.39286  1.0000
  Ag  Ag9766    1.0  0.89286  0.42857  0.39286  1.0000
  Ag  Ag9767    1.0  0.89286  0.46429  0.35714  1.0000
  Ag  Ag9768    1.0  0.85714  0.42857  0.42857  1.0000
  Ag  Ag9769    1.0  0.85714  0.46429  0.46429  1.0000
  Ag  Ag9770    1.0  0.89286  0.42857  0.46429  1.0000
  Ag  Ag9771    1.0  0.89286  0.46429  0.42857  1.0000
  Ag  Ag9772    1.0  0.85714  0.42857  0.50000  1.0000
  Ag  Ag9773    1.0  0.85714  0.46429  0.53571  1.0000
  Ag  Ag9774    1.0  0.89286  0.42857  0.53571  1.0000
  Ag  Ag9775    1.0  0.89286  0.46429  0.50000  1.0000
  Ag  Ag9776    1.0  0.85714  0.42857  0.57143  1.0000
  Ag  Ag9777    1.0  0.85714  0.46429  0.60714  1.0000
  Ag  Ag9778    1.0  0.89286  0.42857  0.60714  1.0000
  Ag  Ag9779    1.0  0.89286  0.46429  0.57143  1.0000
  Ag  Ag9780    1.0  0.85714  0.42857  0.64286  1.0000
  Ag  Ag9781    1.0  0.85714  0.46429  0.67857  1.0000
  Ag  Ag9782    1.0  0.89286  0.42857  0.67857  1.0000
  Ag  Ag9783    1.0  0.89286  0.46429  0.64286  1.0000
  Ag  Ag9784    1.0  0.85714  0.42857  0.71429  1.0000
  Ag  Ag9785    1.0  0.85714  0.46429  0.75000  1.0000
  Ag  Ag9786    1.0  0.89286  0.42857  0.75000  1.0000
  Ag  Ag9787    1.0  0.89286  0.46429  0.71429  1.0000
  Ag  Ag9788    1.0  0.85714  0.42857  0.78571  1.0000
  Ag  Ag9789    1.0  0.85714  0.46429  0.82143  1.0000
  Ag  Ag9790    1.0  0.89286  0.42857  0.82143  1.0000
  Ag  Ag9791    1.0  0.89286  0.46429  0.78571  1.0000
  Ag  Ag9792    1.0  0.85714  0.42857  0.85714  1.0000
  Ag  Ag9793    1.0  0.85714  0.46429  0.89286  1.0000
  Ag  Ag9794    1.0  0.89286  0.42857  0.89286  1.0000
  Ag  Ag9795    1.0  0.89286  0.46429  0.85714  1.0000
  Ag  Ag9796    1.0  0.85714  0.42857  0.92857  1.0000
  Ag  Ag9797    1.0  0.85714  0.46429  0.96429  1.0000
  Ag  Ag9798    1.0  0.89286  0.42857  0.96429  1.0000
  Ag  Ag9799    1.0  0.89286  0.46429  0.92857  1.0000
  Ag  Ag9800    1.0  0.85714  0.50000  0.00000  1.0000
  Ag  Ag9801    1.0  0.85714  0.53571  0.03571  1.0000
  Ag  Ag9802    1.0  0.89286  0.50000  0.03571  1.0000
  Ag  Ag9803    1.0  0.89286  0.53571  0.00000  1.0000
  Ag  Ag9804    1.0  0.85714  0.50000  0.07143  1.0000
  Ag  Ag9805    1.0  0.85714  0.53571  0.10714  1.0000
  Ag  Ag9806    1.0  0.89286  0.50000  0.10714  1.0000
  Ag  Ag9807    1.0  0.89286  0.53571  0.07143  1.0000
  Ag  Ag9808    1.0  0.85714  0.50000  0.14286  1.0000
  Ag  Ag9809    1.0  0.85714  0.53571  0.17857  1.0000
  Ag  Ag9810    1.0  0.89286  0.50000  0.17857  1.0000
  Ag  Ag9811    1.0  0.89286  0.53571  0.14286  1.0000
  Ag  Ag9812    1.0  0.85714  0.50000  0.21429  1.0000
  Ag  Ag9813    1.0  0.85714  0.53571  0.25000  1.0000
  Ag  Ag9814    1.0  0.89286  0.50000  0.25000  1.0000
  Ag  Ag9815    1.0  0.89286  0.53571  0.21429  1.0000
  Ag  Ag9816    1.0  0.85714  0.50000  0.28571  1.0000
  Ag  Ag9817    1.0  0.85714  0.53571  0.32143  1.0000
  Ag  Ag9818    1.0  0.89286  0.50000  0.32143  1.0000
  Ag  Ag9819    1.0  0.89286  0.53571  0.28571  1.0000
  Ag  Ag9820    1.0  0.85714  0.50000  0.35714  1.0000
  Ag  Ag9821    1.0  0.85714  0.53571  0.39286  1.0000
  Ag  Ag9822    1.0  0.89286  0.50000  0.39286  1.0000
  Ag  Ag9823    1.0  0.89286  0.53571  0.35714  1.0000
  Ag  Ag9824    1.0  0.85714  0.50000  0.42857  1.0000
  Ag  Ag9825    1.0  0.85714  0.53571  0.46429  1.0000
  Ag  Ag9826    1.0  0.89286  0.50000  0.46429  1.0000
  Ag  Ag9827    1.0  0.89286  0.53571  0.42857  1.0000
  Ag  Ag9828    1.0  0.85714  0.50000  0.50000  1.0000
  Ag  Ag9829    1.0  0.85714  0.53571  0.53571  1.0000
  Ag  Ag9830    1.0  0.89286  0.50000  0.53571  1.0000
  Ag  Ag9831    1.0  0.89286  0.53571  0.50000  1.0000
  Ag  Ag9832    1.0  0.85714  0.50000  0.57143  1.0000
  Ag  Ag9833    1.0  0.85714  0.53571  0.60714  1.0000
  Ag  Ag9834    1.0  0.89286  0.50000  0.60714  1.0000
  Ag  Ag9835    1.0  0.89286  0.53571  0.57143  1.0000
  Ag  Ag9836    1.0  0.85714  0.50000  0.64286  1.0000
  Ag  Ag9837    1.0  0.85714  0.53571  0.67857  1.0000
  Ag  Ag9838    1.0  0.89286  0.50000  0.67857  1.0000
  Ag  Ag9839    1.0  0.89286  0.53571  0.64286  1.0000
  Ag  Ag9840    1.0  0.85714  0.50000  0.71429  1.0000
  Ag  Ag9841    1.0  0.85714  0.53571  0.75000  1.0000
  Ag  Ag9842    1.0  0.89286  0.50000  0.75000  1.0000
  Ag  Ag9843    1.0  0.89286  0.53571  0.71429  1.0000
  Ag  Ag9844    1.0  0.85714  0.50000  0.78571  1.0000
  Ag  Ag9845    1.0  0.85714  0.53571  0.82143  1.0000
  Ag  Ag9846    1.0  0.89286  0.50000  0.82143  1.0000
  Ag  Ag9847    1.0  0.89286  0.53571  0.78571  1.0000
  Ag  Ag9848    1.0  0.85714  0.50000  0.85714  1.0000
  Ag  Ag9849    1.0  0.85714  0.53571  0.89286  1.0000
  Ag  Ag9850    1.0  0.89286  0.50000  0.89286  1.0000
  Ag  Ag9851    1.0  0.89286  0.53571  0.85714  1.0000
  Ag  Ag9852    1.0  0.85714  0.50000  0.92857  1.0000
  Ag  Ag9853    1.0  0.85714  0.53571  0.96429  1.0000
  Ag  Ag9854    1.0  0.89286  0.50000  0.96429  1.0000
  Ag  Ag9855    1.0  0.89286  0.53571  0.92857  1.0000
  Ag  Ag9856    1.0  0.85714  0.57143  0.00000  1.0000
  Ag  Ag9857    1.0  0.85714  0.60714  0.03571  1.0000
  Ag  Ag9858    1.0  0.89286  0.57143  0.03571  1.0000
  Ag  Ag9859    1.0  0.89286  0.60714  0.00000  1.0000
  Ag  Ag9860    1.0  0.85714  0.57143  0.07143  1.0000
  Ag  Ag9861    1.0  0.85714  0.60714  0.10714  1.0000
  Ag  Ag9862    1.0  0.89286  0.57143  0.10714  1.0000
  Ag  Ag9863    1.0  0.89286  0.60714  0.07143  1.0000
  Ag  Ag9864    1.0  0.85714  0.57143  0.14286  1.0000
  Ag  Ag9865    1.0  0.85714  0.60714  0.17857  1.0000
  Ag  Ag9866    1.0  0.89286  0.57143  0.17857  1.0000
  Ag  Ag9867    1.0  0.89286  0.60714  0.14286  1.0000
  Ag  Ag9868    1.0  0.85714  0.57143  0.21429  1.0000
  Ag  Ag9869    1.0  0.85714  0.60714  0.25000  1.0000
  Ag  Ag9870    1.0  0.89286  0.57143  0.25000  1.0000
  Ag  Ag9871    1.0  0.89286  0.60714  0.21429  1.0000
  Ag  Ag9872    1.0  0.85714  0.57143  0.28571  1.0000
  Ag  Ag9873    1.0  0.85714  0.60714  0.32143  1.0000
  Ag  Ag9874    1.0  0.89286  0.57143  0.32143  1.0000
  Ag  Ag9875    1.0  0.89286  0.60714  0.28571  1.0000
  Ag  Ag9876    1.0  0.85714  0.57143  0.35714  1.0000
  Ag  Ag9877    1.0  0.85714  0.60714  0.39286  1.0000
  Ag  Ag9878    1.0  0.89286  0.57143  0.39286  1.0000
  Ag  Ag9879    1.0  0.89286  0.60714  0.35714  1.0000
  Ag  Ag9880    1.0  0.85714  0.57143  0.42857  1.0000
  Ag  Ag9881    1.0  0.85714  0.60714  0.46429  1.0000
  Ag  Ag9882    1.0  0.89286  0.57143  0.46429  1.0000
  Ag  Ag9883    1.0  0.89286  0.60714  0.42857  1.0000
  Ag  Ag9884    1.0  0.85714  0.57143  0.50000  1.0000
  Ag  Ag9885    1.0  0.85714  0.60714  0.53571  1.0000
  Ag  Ag9886    1.0  0.89286  0.57143  0.53571  1.0000
  Ag  Ag9887    1.0  0.89286  0.60714  0.50000  1.0000
  Ag  Ag9888    1.0  0.85714  0.57143  0.57143  1.0000
  Ag  Ag9889    1.0  0.85714  0.60714  0.60714  1.0000
  Ag  Ag9890    1.0  0.89286  0.57143  0.60714  1.0000
  Ag  Ag9891    1.0  0.89286  0.60714  0.57143  1.0000
  Ag  Ag9892    1.0  0.85714  0.57143  0.64286  1.0000
  Ag  Ag9893    1.0  0.85714  0.60714  0.67857  1.0000
  Ag  Ag9894    1.0  0.89286  0.57143  0.67857  1.0000
  Ag  Ag9895    1.0  0.89286  0.60714  0.64286  1.0000
  Ag  Ag9896    1.0  0.85714  0.57143  0.71429  1.0000
  Ag  Ag9897    1.0  0.85714  0.60714  0.75000  1.0000
  Ag  Ag9898    1.0  0.89286  0.57143  0.75000  1.0000
  Ag  Ag9899    1.0  0.89286  0.60714  0.71429  1.0000
  Ag  Ag9900    1.0  0.85714  0.57143  0.78571  1.0000
  Ag  Ag9901    1.0  0.85714  0.60714  0.82143  1.0000
  Ag  Ag9902    1.0  0.89286  0.57143  0.82143  1.0000
  Ag  Ag9903    1.0  0.89286  0.60714  0.78571  1.0000
  Ag  Ag9904    1.0  0.85714  0.57143  0.85714  1.0000
  Ag  Ag9905    1.0  0.85714  0.60714  0.89286  1.0000
  Ag  Ag9906    1.0  0.89286  0.57143  0.89286  1.0000
  Ag  Ag9907    1.0  0.89286  0.60714  0.85714  1.0000
  Ag  Ag9908    1.0  0.85714  0.57143  0.92857  1.0000
  Ag  Ag9909    1.0  0.85714  0.60714  0.96429  1.0000
  Ag  Ag9910    1.0  0.89286  0.57143  0.96429  1.0000
  Ag  Ag9911    1.0  0.89286  0.60714  0.92857  1.0000
  Ag  Ag9912    1.0  0.85714  0.64286  0.00000  1.0000
  Ag  Ag9913    1.0  0.85714  0.67857  0.03571  1.0000
  Ag  Ag9914    1.0  0.89286  0.64286  0.03571  1.0000
  Ag  Ag9915    1.0  0.89286  0.67857  0.00000  1.0000
  Ag  Ag9916    1.0  0.85714  0.64286  0.07143  1.0000
  Ag  Ag9917    1.0  0.85714  0.67857  0.10714  1.0000
  Ag  Ag9918    1.0  0.89286  0.64286  0.10714  1.0000
  Ag  Ag9919    1.0  0.89286  0.67857  0.07143  1.0000
  Ag  Ag9920    1.0  0.85714  0.64286  0.14286  1.0000
  Ag  Ag9921    1.0  0.85714  0.67857  0.17857  1.0000
  Ag  Ag9922    1.0  0.89286  0.64286  0.17857  1.0000
  Ag  Ag9923    1.0  0.89286  0.67857  0.14286  1.0000
  Ag  Ag9924    1.0  0.85714  0.64286  0.21429  1.0000
  Ag  Ag9925    1.0  0.85714  0.67857  0.25000  1.0000
  Ag  Ag9926    1.0  0.89286  0.64286  0.25000  1.0000
  Ag  Ag9927    1.0  0.89286  0.67857  0.21429  1.0000
  Ag  Ag9928    1.0  0.85714  0.64286  0.28571  1.0000
  Ag  Ag9929    1.0  0.85714  0.67857  0.32143  1.0000
  Ag  Ag9930    1.0  0.89286  0.64286  0.32143  1.0000
  Ag  Ag9931    1.0  0.89286  0.67857  0.28571  1.0000
  Ag  Ag9932    1.0  0.85714  0.64286  0.35714  1.0000
  Ag  Ag9933    1.0  0.85714  0.67857  0.39286  1.0000
  Ag  Ag9934    1.0  0.89286  0.64286  0.39286  1.0000
  Ag  Ag9935    1.0  0.89286  0.67857  0.35714  1.0000
  Ag  Ag9936    1.0  0.85714  0.64286  0.42857  1.0000
  Ag  Ag9937    1.0  0.85714  0.67857  0.46429  1.0000
  Ag  Ag9938    1.0  0.89286  0.64286  0.46429  1.0000
  Ag  Ag9939    1.0  0.89286  0.67857  0.42857  1.0000
  Ag  Ag9940    1.0  0.85714  0.64286  0.50000  1.0000
  Ag  Ag9941    1.0  0.85714  0.67857  0.53571  1.0000
  Ag  Ag9942    1.0  0.89286  0.64286  0.53571  1.0000
  Ag  Ag9943    1.0  0.89286  0.67857  0.50000  1.0000
  Ag  Ag9944    1.0  0.85714  0.64286  0.57143  1.0000
  Ag  Ag9945    1.0  0.85714  0.67857  0.60714  1.0000
  Ag  Ag9946    1.0  0.89286  0.64286  0.60714  1.0000
  Ag  Ag9947    1.0  0.89286  0.67857  0.57143  1.0000
  Ag  Ag9948    1.0  0.85714  0.64286  0.64286  1.0000
  Ag  Ag9949    1.0  0.85714  0.67857  0.67857  1.0000
  Ag  Ag9950    1.0  0.89286  0.64286  0.67857  1.0000
  Ag  Ag9951    1.0  0.89286  0.67857  0.64286  1.0000
  Ag  Ag9952    1.0  0.85714  0.64286  0.71429  1.0000
  Ag  Ag9953    1.0  0.85714  0.67857  0.75000  1.0000
  Ag  Ag9954    1.0  0.89286  0.64286  0.75000  1.0000
  Ag  Ag9955    1.0  0.89286  0.67857  0.71429  1.0000
  Ag  Ag9956    1.0  0.85714  0.64286  0.78571  1.0000
  Ag  Ag9957    1.0  0.85714  0.67857  0.82143  1.0000
  Ag  Ag9958    1.0  0.89286  0.64286  0.82143  1.0000
  Ag  Ag9959    1.0  0.89286  0.67857  0.78571  1.0000
  Ag  Ag9960    1.0  0.85714  0.64286  0.85714  1.0000
  Ag  Ag9961    1.0  0.85714  0.67857  0.89286  1.0000
  Ag  Ag9962    1.0  0.89286  0.64286  0.89286  1.0000
  Ag  Ag9963    1.0  0.89286  0.67857  0.85714  1.0000
  Ag  Ag9964    1.0  0.85714  0.64286  0.92857  1.0000
  Ag  Ag9965    1.0  0.85714  0.67857  0.96429  1.0000
  Ag  Ag9966    1.0  0.89286  0.64286  0.96429  1.0000
  Ag  Ag9967    1.0  0.89286  0.67857  0.92857  1.0000
  Ag  Ag9968    1.0  0.85714  0.71429  0.00000  1.0000
  Ag  Ag9969    1.0  0.85714  0.75000  0.03571  1.0000
  Ag  Ag9970    1.0  0.89286  0.71429  0.03571  1.0000
  Ag  Ag9971    1.0  0.89286  0.75000  0.00000  1.0000
  Ag  Ag9972    1.0  0.85714  0.71429  0.07143  1.0000
  Ag  Ag9973    1.0  0.85714  0.75000  0.10714  1.0000
  Ag  Ag9974    1.0  0.89286  0.71429  0.10714  1.0000
  Ag  Ag9975    1.0  0.89286  0.75000  0.07143  1.0000
  Ag  Ag9976    1.0  0.85714  0.71429  0.14286  1.0000
  Ag  Ag9977    1.0  0.85714  0.75000  0.17857  1.0000
  Ag  Ag9978    1.0  0.89286  0.71429  0.17857  1.0000
  Ag  Ag9979    1.0  0.89286  0.75000  0.14286  1.0000
  Ag  Ag9980    1.0  0.85714  0.71429  0.21429  1.0000
  Ag  Ag9981    1.0  0.85714  0.75000  0.25000  1.0000
  Ag  Ag9982    1.0  0.89286  0.71429  0.25000  1.0000
  Ag  Ag9983    1.0  0.89286  0.75000  0.21429  1.0000
  Ag  Ag9984    1.0  0.85714  0.71429  0.28571  1.0000
  Ag  Ag9985    1.0  0.85714  0.75000  0.32143  1.0000
  Ag  Ag9986    1.0  0.89286  0.71429  0.32143  1.0000
  Ag  Ag9987    1.0  0.89286  0.75000  0.28571  1.0000
  Ag  Ag9988    1.0  0.85714  0.71429  0.35714  1.0000
  Ag  Ag9989    1.0  0.85714  0.75000  0.39286  1.0000
  Ag  Ag9990    1.0  0.89286  0.71429  0.39286  1.0000
  Ag  Ag9991    1.0  0.89286  0.75000  0.35714  1.0000
  Ag  Ag9992    1.0  0.85714  0.71429  0.42857  1.0000
  Ag  Ag9993    1.0  0.85714  0.75000  0.46429  1.0000
  Ag  Ag9994    1.0  0.89286  0.71429  0.46429  1.0000
  Ag  Ag9995    1.0  0.89286  0.75000  0.42857  1.0000
  Ag  Ag9996    1.0  0.85714  0.71429  0.50000  1.0000
  Ag  Ag9997    1.0  0.85714  0.75000  0.53571  1.0000
  Ag  Ag9998    1.0  0.89286  0.71429  0.53571  1.0000
  Ag  Ag9999    1.0  0.89286  0.75000  0.50000  1.0000
  Ag  Ag10000   1.0  0.85714  0.71429  0.57143  1.0000
  Ag  Ag10001   1.0  0.85714  0.75000  0.60714  1.0000
  Ag  Ag10002   1.0  0.89286  0.71429  0.60714  1.0000
  Ag  Ag10003   1.0  0.89286  0.75000  0.57143  1.0000
  Ag  Ag10004   1.0  0.85714  0.71429  0.64286  1.0000
  Ag  Ag10005   1.0  0.85714  0.75000  0.67857  1.0000
  Ag  Ag10006   1.0  0.89286  0.71429  0.67857  1.0000
  Ag  Ag10007   1.0  0.89286  0.75000  0.64286  1.0000
  Ag  Ag10008   1.0  0.85714  0.71429  0.71429  1.0000
  Ag  Ag10009   1.0  0.85714  0.75000  0.75000  1.0000
  Ag  Ag10010   1.0  0.89286  0.71429  0.75000  1.0000
  Ag  Ag10011   1.0  0.89286  0.75000  0.71429  1.0000
  Ag  Ag10012   1.0  0.85714  0.71429  0.78571  1.0000
  Ag  Ag10013   1.0  0.85714  0.75000  0.82143  1.0000
  Ag  Ag10014   1.0  0.89286  0.71429  0.82143  1.0000
  Ag  Ag10015   1.0  0.89286  0.75000  0.78571  1.0000
  Ag  Ag10016   1.0  0.85714  0.71429  0.85714  1.0000
  Ag  Ag10017   1.0  0.85714  0.75000  0.89286  1.0000
  Ag  Ag10018   1.0  0.89286  0.71429  0.89286  1.0000
  Ag  Ag10019   1.0  0.89286  0.75000  0.85714  1.0000
  Ag  Ag10020   1.0  0.85714  0.71429  0.92857  1.0000
  Ag  Ag10021   1.0  0.85714  0.75000  0.96429  1.0000
  Ag  Ag10022   1.0  0.89286  0.71429  0.96429  1.0000
  Ag  Ag10023   1.0  0.89286  0.75000  0.92857  1.0000
  Ag  Ag10024   1.0  0.85714  0.78571  0.00000  1.0000
  Ag  Ag10025   1.0  0.85714  0.82143  0.03571  1.0000
  Ag  Ag10026   1.0  0.89286  0.78571  0.03571  1.0000
  Ag  Ag10027   1.0  0.89286  0.82143  0.00000  1.0000
  Ag  Ag10028   1.0  0.85714  0.78571  0.07143  1.0000
  Ag  Ag10029   1.0  0.85714  0.82143  0.10714  1.0000
  Ag  Ag10030   1.0  0.89286  0.78571  0.10714  1.0000
  Ag  Ag10031   1.0  0.89286  0.82143  0.07143  1.0000
  Ag  Ag10032   1.0  0.85714  0.78571  0.14286  1.0000
  Ag  Ag10033   1.0  0.85714  0.82143  0.17857  1.0000
  Ag  Ag10034   1.0  0.89286  0.78571  0.17857  1.0000
  Ag  Ag10035   1.0  0.89286  0.82143  0.14286  1.0000
  Ag  Ag10036   1.0  0.85714  0.78571  0.21429  1.0000
  Ag  Ag10037   1.0  0.85714  0.82143  0.25000  1.0000
  Ag  Ag10038   1.0  0.89286  0.78571  0.25000  1.0000
  Ag  Ag10039   1.0  0.89286  0.82143  0.21429  1.0000
  Ag  Ag10040   1.0  0.85714  0.78571  0.28571  1.0000
  Ag  Ag10041   1.0  0.85714  0.82143  0.32143  1.0000
  Ag  Ag10042   1.0  0.89286  0.78571  0.32143  1.0000
  Ag  Ag10043   1.0  0.89286  0.82143  0.28571  1.0000
  Ag  Ag10044   1.0  0.85714  0.78571  0.35714  1.0000
  Ag  Ag10045   1.0  0.85714  0.82143  0.39286  1.0000
  Ag  Ag10046   1.0  0.89286  0.78571  0.39286  1.0000
  Ag  Ag10047   1.0  0.89286  0.82143  0.35714  1.0000
  Ag  Ag10048   1.0  0.85714  0.78571  0.42857  1.0000
  Ag  Ag10049   1.0  0.85714  0.82143  0.46429  1.0000
  Ag  Ag10050   1.0  0.89286  0.78571  0.46429  1.0000
  Ag  Ag10051   1.0  0.89286  0.82143  0.42857  1.0000
  Ag  Ag10052   1.0  0.85714  0.78571  0.50000  1.0000
  Ag  Ag10053   1.0  0.85714  0.82143  0.53571  1.0000
  Ag  Ag10054   1.0  0.89286  0.78571  0.53571  1.0000
  Ag  Ag10055   1.0  0.89286  0.82143  0.50000  1.0000
  Ag  Ag10056   1.0  0.85714  0.78571  0.57143  1.0000
  Ag  Ag10057   1.0  0.85714  0.82143  0.60714  1.0000
  Ag  Ag10058   1.0  0.89286  0.78571  0.60714  1.0000
  Ag  Ag10059   1.0  0.89286  0.82143  0.57143  1.0000
  Ag  Ag10060   1.0  0.85714  0.78571  0.64286  1.0000
  Ag  Ag10061   1.0  0.85714  0.82143  0.67857  1.0000
  Ag  Ag10062   1.0  0.89286  0.78571  0.67857  1.0000
  Ag  Ag10063   1.0  0.89286  0.82143  0.64286  1.0000
  Ag  Ag10064   1.0  0.85714  0.78571  0.71429  1.0000
  Ag  Ag10065   1.0  0.85714  0.82143  0.75000  1.0000
  Ag  Ag10066   1.0  0.89286  0.78571  0.75000  1.0000
  Ag  Ag10067   1.0  0.89286  0.82143  0.71429  1.0000
  Ag  Ag10068   1.0  0.85714  0.78571  0.78571  1.0000
  Ag  Ag10069   1.0  0.85714  0.82143  0.82143  1.0000
  Ag  Ag10070   1.0  0.89286  0.78571  0.82143  1.0000
  Ag  Ag10071   1.0  0.89286  0.82143  0.78571  1.0000
  Ag  Ag10072   1.0  0.85714  0.78571  0.85714  1.0000
  Ag  Ag10073   1.0  0.85714  0.82143  0.89286  1.0000
  Ag  Ag10074   1.0  0.89286  0.78571  0.89286  1.0000
  Ag  Ag10075   1.0  0.89286  0.82143  0.85714  1.0000
  Ag  Ag10076   1.0  0.85714  0.78571  0.92857  1.0000
  Ag  Ag10077   1.0  0.85714  0.82143  0.96429  1.0000
  Ag  Ag10078   1.0  0.89286  0.78571  0.96429  1.0000
  Ag  Ag10079   1.0  0.89286  0.82143  0.92857  1.0000
  Ag  Ag10080   1.0  0.85714  0.85714  0.00000  1.0000
  Ag  Ag10081   1.0  0.85714  0.89286  0.03571  1.0000
  Ag  Ag10082   1.0  0.89286  0.85714  0.03571  1.0000
  Ag  Ag10083   1.0  0.89286  0.89286  0.00000  1.0000
  Ag  Ag10084   1.0  0.85714  0.85714  0.07143  1.0000
  Ag  Ag10085   1.0  0.85714  0.89286  0.10714  1.0000
  Ag  Ag10086   1.0  0.89286  0.85714  0.10714  1.0000
  Ag  Ag10087   1.0  0.89286  0.89286  0.07143  1.0000
  Ag  Ag10088   1.0  0.85714  0.85714  0.14286  1.0000
  Ag  Ag10089   1.0  0.85714  0.89286  0.17857  1.0000
  Ag  Ag10090   1.0  0.89286  0.85714  0.17857  1.0000
  Ag  Ag10091   1.0  0.89286  0.89286  0.14286  1.0000
  Ag  Ag10092   1.0  0.85714  0.85714  0.21429  1.0000
  Ag  Ag10093   1.0  0.85714  0.89286  0.25000  1.0000
  Ag  Ag10094   1.0  0.89286  0.85714  0.25000  1.0000
  Ag  Ag10095   1.0  0.89286  0.89286  0.21429  1.0000
  Ag  Ag10096   1.0  0.85714  0.85714  0.28571  1.0000
  Ag  Ag10097   1.0  0.85714  0.89286  0.32143  1.0000
  Ag  Ag10098   1.0  0.89286  0.85714  0.32143  1.0000
  Ag  Ag10099   1.0  0.89286  0.89286  0.28571  1.0000
  Ag  Ag10100   1.0  0.85714  0.85714  0.35714  1.0000
  Ag  Ag10101   1.0  0.85714  0.89286  0.39286  1.0000
  Ag  Ag10102   1.0  0.89286  0.85714  0.39286  1.0000
  Ag  Ag10103   1.0  0.89286  0.89286  0.35714  1.0000
  Ag  Ag10104   1.0  0.85714  0.85714  0.42857  1.0000
  Ag  Ag10105   1.0  0.85714  0.89286  0.46429  1.0000
  Ag  Ag10106   1.0  0.89286  0.85714  0.46429  1.0000
  Ag  Ag10107   1.0  0.89286  0.89286  0.42857  1.0000
  Ag  Ag10108   1.0  0.85714  0.85714  0.50000  1.0000
  Ag  Ag10109   1.0  0.85714  0.89286  0.53571  1.0000
  Ag  Ag10110   1.0  0.89286  0.85714  0.53571  1.0000
  Ag  Ag10111   1.0  0.89286  0.89286  0.50000  1.0000
  Ag  Ag10112   1.0  0.85714  0.85714  0.57143  1.0000
  Ag  Ag10113   1.0  0.85714  0.89286  0.60714  1.0000
  Ag  Ag10114   1.0  0.89286  0.85714  0.60714  1.0000
  Ag  Ag10115   1.0  0.89286  0.89286  0.57143  1.0000
  Ag  Ag10116   1.0  0.85714  0.85714  0.64286  1.0000
  Ag  Ag10117   1.0  0.85714  0.89286  0.67857  1.0000
  Ag  Ag10118   1.0  0.89286  0.85714  0.67857  1.0000
  Ag  Ag10119   1.0  0.89286  0.89286  0.64286  1.0000
  Ag  Ag10120   1.0  0.85714  0.85714  0.71429  1.0000
  Ag  Ag10121   1.0  0.85714  0.89286  0.75000  1.0000
  Ag  Ag10122   1.0  0.89286  0.85714  0.75000  1.0000
  Ag  Ag10123   1.0  0.89286  0.89286  0.71429  1.0000
  Ag  Ag10124   1.0  0.85714  0.85714  0.78571  1.0000
  Ag  Ag10125   1.0  0.85714  0.89286  0.82143  1.0000
  Ag  Ag10126   1.0  0.89286  0.85714  0.82143  1.0000
  Ag  Ag10127   1.0  0.89286  0.89286  0.78571  1.0000
  Ag  Ag10128   1.0  0.85714  0.85714  0.85714  1.0000
  Ag  Ag10129   1.0  0.85714  0.89286  0.89286  1.0000
  Ag  Ag10130   1.0  0.89286  0.85714  0.89286  1.0000
  Ag  Ag10131   1.0  0.89286  0.89286  0.85714  1.0000
  Ag  Ag10132   1.0  0.85714  0.85714  0.92857  1.0000
  Ag  Ag10133   1.0  0.85714  0.89286  0.96429  1.0000
  Ag  Ag10134   1.0  0.89286  0.85714  0.96429  1.0000
  Ag  Ag10135   1.0  0.89286  0.89286  0.92857  1.0000
  Ag  Ag10136   1.0  0.85714  0.92857  0.00000  1.0000
  Ag  Ag10137   1.0  0.85714  0.96429  0.03571  1.0000
  Ag  Ag10138   1.0  0.89286  0.92857  0.03571  1.0000
  Ag  Ag10139   1.0  0.89286  0.96429  0.00000  1.0000
  Ag  Ag10140   1.0  0.85714  0.92857  0.07143  1.0000
  Ag  Ag10141   1.0  0.85714  0.96429  0.10714  1.0000
  Ag  Ag10142   1.0  0.89286  0.92857  0.10714  1.0000
  Ag  Ag10143   1.0  0.89286  0.96429  0.07143  1.0000
  Ag  Ag10144   1.0  0.85714  0.92857  0.14286  1.0000
  Ag  Ag10145   1.0  0.85714  0.96429  0.17857  1.0000
  Ag  Ag10146   1.0  0.89286  0.92857  0.17857  1.0000
  Ag  Ag10147   1.0  0.89286  0.96429  0.14286  1.0000
  Ag  Ag10148   1.0  0.85714  0.92857  0.21429  1.0000
  Ag  Ag10149   1.0  0.85714  0.96429  0.25000  1.0000
  Ag  Ag10150   1.0  0.89286  0.92857  0.25000  1.0000
  Ag  Ag10151   1.0  0.89286  0.96429  0.21429  1.0000
  Ag  Ag10152   1.0  0.85714  0.92857  0.28571  1.0000
  Ag  Ag10153   1.0  0.85714  0.96429  0.32143  1.0000
  Ag  Ag10154   1.0  0.89286  0.92857  0.32143  1.0000
  Ag  Ag10155   1.0  0.89286  0.96429  0.28571  1.0000
  Ag  Ag10156   1.0  0.85714  0.92857  0.35714  1.0000
  Ag  Ag10157   1.0  0.85714  0.96429  0.39286  1.0000
  Ag  Ag10158   1.0  0.89286  0.92857  0.39286  1.0000
  Ag  Ag10159   1.0  0.89286  0.96429  0.35714  1.0000
  Ag  Ag10160   1.0  0.85714  0.92857  0.42857  1.0000
  Ag  Ag10161   1.0  0.85714  0.96429  0.46429  1.0000
  Ag  Ag10162   1.0  0.89286  0.92857  0.46429  1.0000
  Ag  Ag10163   1.0  0.89286  0.96429  0.42857  1.0000
  Ag  Ag10164   1.0  0.85714  0.92857  0.50000  1.0000
  Ag  Ag10165   1.0  0.85714  0.96429  0.53571  1.0000
  Ag  Ag10166   1.0  0.89286  0.92857  0.53571  1.0000
  Ag  Ag10167   1.0  0.89286  0.96429  0.50000  1.0000
  Ag  Ag10168   1.0  0.85714  0.92857  0.57143  1.0000
  Ag  Ag10169   1.0  0.85714  0.96429  0.60714  1.0000
  Ag  Ag10170   1.0  0.89286  0.92857  0.60714  1.0000
  Ag  Ag10171   1.0  0.89286  0.96429  0.57143  1.0000
  Ag  Ag10172   1.0  0.85714  0.92857  0.64286  1.0000
  Ag  Ag10173   1.0  0.85714  0.96429  0.67857  1.0000
  Ag  Ag10174   1.0  0.89286  0.92857  0.67857  1.0000
  Ag  Ag10175   1.0  0.89286  0.96429  0.64286  1.0000
  Ag  Ag10176   1.0  0.85714  0.92857  0.71429  1.0000
  Ag  Ag10177   1.0  0.85714  0.96429  0.75000  1.0000
  Ag  Ag10178   1.0  0.89286  0.92857  0.75000  1.0000
  Ag  Ag10179   1.0  0.89286  0.96429  0.71429  1.0000
  Ag  Ag10180   1.0  0.85714  0.92857  0.78571  1.0000
  Ag  Ag10181   1.0  0.85714  0.96429  0.82143  1.0000
  Ag  Ag10182   1.0  0.89286  0.92857  0.82143  1.0000
  Ag  Ag10183   1.0  0.89286  0.96429  0.78571  1.0000
  Ag  Ag10184   1.0  0.85714  0.92857  0.85714  1.0000
  Ag  Ag10185   1.0  0.85714  0.96429  0.89286  1.0000
  Ag  Ag10186   1.0  0.89286  0.92857  0.89286  1.0000
  Ag  Ag10187   1.0  0.89286  0.96429  0.85714  1.0000
  Ag  Ag10188   1.0  0.85714  0.92857  0.92857  1.0000
  Ag  Ag10189   1.0  0.85714  0.96429  0.96429  1.0000
  Ag  Ag10190   1.0  0.89286  0.92857  0.96429  1.0000
  Ag  Ag10191   1.0  0.89286  0.96429  0.92857  1.0000
  Ag  Ag10192   1.0  0.92857  0.00000  0.00000  1.0000
  Ag  Ag10193   1.0  0.92857  0.03571  0.03571  1.0000
  Ag  Ag10194   1.0  0.96429  0.00000  0.03571  1.0000
  Ag  Ag10195   1.0  0.96429  0.03571  0.00000  1.0000
  Ag  Ag10196   1.0  0.92857  0.00000  0.07143  1.0000
  Ag  Ag10197   1.0  0.92857  0.03571  0.10714  1.0000
  Ag  Ag10198   1.0  0.96429  0.00000  0.10714  1.0000
  Ag  Ag10199   1.0  0.96429  0.03571  0.07143  1.0000
  Ag  Ag10200   1.0  0.92857  0.00000  0.14286  1.0000
  Ag  Ag10201   1.0  0.92857  0.03571  0.17857  1.0000
  Ag  Ag10202   1.0  0.96429  0.00000  0.17857  1.0000
  Ag  Ag10203   1.0  0.96429  0.03571  0.14286  1.0000
  Ag  Ag10204   1.0  0.92857  0.00000  0.21429  1.0000
  Ag  Ag10205   1.0  0.92857  0.03571  0.25000  1.0000
  Ag  Ag10206   1.0  0.96429  0.00000  0.25000  1.0000
  Ag  Ag10207   1.0  0.96429  0.03571  0.21429  1.0000
  Ag  Ag10208   1.0  0.92857  0.00000  0.28571  1.0000
  Ag  Ag10209   1.0  0.92857  0.03571  0.32143  1.0000
  Ag  Ag10210   1.0  0.96429  0.00000  0.32143  1.0000
  Ag  Ag10211   1.0  0.96429  0.03571  0.28571  1.0000
  Ag  Ag10212   1.0  0.92857  0.00000  0.35714  1.0000
  Ag  Ag10213   1.0  0.92857  0.03571  0.39286  1.0000
  Ag  Ag10214   1.0  0.96429  0.00000  0.39286  1.0000
  Ag  Ag10215   1.0  0.96429  0.03571  0.35714  1.0000
  Ag  Ag10216   1.0  0.92857  0.00000  0.42857  1.0000
  Ag  Ag10217   1.0  0.92857  0.03571  0.46429  1.0000
  Ag  Ag10218   1.0  0.96429  0.00000  0.46429  1.0000
  Ag  Ag10219   1.0  0.96429  0.03571  0.42857  1.0000
  Ag  Ag10220   1.0  0.92857  0.00000  0.50000  1.0000
  Ag  Ag10221   1.0  0.92857  0.03571  0.53571  1.0000
  Ag  Ag10222   1.0  0.96429  0.00000  0.53571  1.0000
  Ag  Ag10223   1.0  0.96429  0.03571  0.50000  1.0000
  Ag  Ag10224   1.0  0.92857  0.00000  0.57143  1.0000
  Ag  Ag10225   1.0  0.92857  0.03571  0.60714  1.0000
  Ag  Ag10226   1.0  0.96429  0.00000  0.60714  1.0000
  Ag  Ag10227   1.0  0.96429  0.03571  0.57143  1.0000
  Ag  Ag10228   1.0  0.92857  0.00000  0.64286  1.0000
  Ag  Ag10229   1.0  0.92857  0.03571  0.67857  1.0000
  Ag  Ag10230   1.0  0.96429  0.00000  0.67857  1.0000
  Ag  Ag10231   1.0  0.96429  0.03571  0.64286  1.0000
  Ag  Ag10232   1.0  0.92857  0.00000  0.71429  1.0000
  Ag  Ag10233   1.0  0.92857  0.03571  0.75000  1.0000
  Ag  Ag10234   1.0  0.96429  0.00000  0.75000  1.0000
  Ag  Ag10235   1.0  0.96429  0.03571  0.71429  1.0000
  Ag  Ag10236   1.0  0.92857  0.00000  0.78571  1.0000
  Ag  Ag10237   1.0  0.92857  0.03571  0.82143  1.0000
  Ag  Ag10238   1.0  0.96429  0.00000  0.82143  1.0000
  Ag  Ag10239   1.0  0.96429  0.03571  0.78571  1.0000
  Ag  Ag10240   1.0  0.92857  0.00000  0.85714  1.0000
  Ag  Ag10241   1.0  0.92857  0.03571  0.89286  1.0000
  Ag  Ag10242   1.0  0.96429  0.00000  0.89286  1.0000
  Ag  Ag10243   1.0  0.96429  0.03571  0.85714  1.0000
  Ag  Ag10244   1.0  0.92857  0.00000  0.92857  1.0000
  Ag  Ag10245   1.0  0.92857  0.03571  0.96429  1.0000
  Ag  Ag10246   1.0  0.96429  0.00000  0.96429  1.0000
  Ag  Ag10247   1.0  0.96429  0.03571  0.92857  1.0000
  Ag  Ag10248   1.0  0.92857  0.07143  0.00000  1.0000
  Ag  Ag10249   1.0  0.92857  0.10714  0.03571  1.0000
  Ag  Ag10250   1.0  0.96429  0.07143  0.03571  1.0000
  Ag  Ag10251   1.0  0.96429  0.10714  0.00000  1.0000
  Ag  Ag10252   1.0  0.92857  0.07143  0.07143  1.0000
  Ag  Ag10253   1.0  0.92857  0.10714  0.10714  1.0000
  Ag  Ag10254   1.0  0.96429  0.07143  0.10714  1.0000
  Ag  Ag10255   1.0  0.96429  0.10714  0.07143  1.0000
  Ag  Ag10256   1.0  0.92857  0.07143  0.14286  1.0000
  Ag  Ag10257   1.0  0.92857  0.10714  0.17857  1.0000
  Ag  Ag10258   1.0  0.96429  0.07143  0.17857  1.0000
  Ag  Ag10259   1.0  0.96429  0.10714  0.14286  1.0000
  Ag  Ag10260   1.0  0.92857  0.07143  0.21429  1.0000
  Ag  Ag10261   1.0  0.92857  0.10714  0.25000  1.0000
  Ag  Ag10262   1.0  0.96429  0.07143  0.25000  1.0000
  Ag  Ag10263   1.0  0.96429  0.10714  0.21429  1.0000
  Ag  Ag10264   1.0  0.92857  0.07143  0.28571  1.0000
  Ag  Ag10265   1.0  0.92857  0.10714  0.32143  1.0000
  Ag  Ag10266   1.0  0.96429  0.07143  0.32143  1.0000
  Ag  Ag10267   1.0  0.96429  0.10714  0.28571  1.0000
  Ag  Ag10268   1.0  0.92857  0.07143  0.35714  1.0000
  Ag  Ag10269   1.0  0.92857  0.10714  0.39286  1.0000
  Ag  Ag10270   1.0  0.96429  0.07143  0.39286  1.0000
  Ag  Ag10271   1.0  0.96429  0.10714  0.35714  1.0000
  Ag  Ag10272   1.0  0.92857  0.07143  0.42857  1.0000
  Ag  Ag10273   1.0  0.92857  0.10714  0.46429  1.0000
  Ag  Ag10274   1.0  0.96429  0.07143  0.46429  1.0000
  Ag  Ag10275   1.0  0.96429  0.10714  0.42857  1.0000
  Ag  Ag10276   1.0  0.92857  0.07143  0.50000  1.0000
  Ag  Ag10277   1.0  0.92857  0.10714  0.53571  1.0000
  Ag  Ag10278   1.0  0.96429  0.07143  0.53571  1.0000
  Ag  Ag10279   1.0  0.96429  0.10714  0.50000  1.0000
  Ag  Ag10280   1.0  0.92857  0.07143  0.57143  1.0000
  Ag  Ag10281   1.0  0.92857  0.10714  0.60714  1.0000
  Ag  Ag10282   1.0  0.96429  0.07143  0.60714  1.0000
  Ag  Ag10283   1.0  0.96429  0.10714  0.57143  1.0000
  Ag  Ag10284   1.0  0.92857  0.07143  0.64286  1.0000
  Ag  Ag10285   1.0  0.92857  0.10714  0.67857  1.0000
  Ag  Ag10286   1.0  0.96429  0.07143  0.67857  1.0000
  Ag  Ag10287   1.0  0.96429  0.10714  0.64286  1.0000
  Ag  Ag10288   1.0  0.92857  0.07143  0.71429  1.0000
  Ag  Ag10289   1.0  0.92857  0.10714  0.75000  1.0000
  Ag  Ag10290   1.0  0.96429  0.07143  0.75000  1.0000
  Ag  Ag10291   1.0  0.96429  0.10714  0.71429  1.0000
  Ag  Ag10292   1.0  0.92857  0.07143  0.78571  1.0000
  Ag  Ag10293   1.0  0.92857  0.10714  0.82143  1.0000
  Ag  Ag10294   1.0  0.96429  0.07143  0.82143  1.0000
  Ag  Ag10295   1.0  0.96429  0.10714  0.78571  1.0000
  Ag  Ag10296   1.0  0.92857  0.07143  0.85714  1.0000
  Ag  Ag10297   1.0  0.92857  0.10714  0.89286  1.0000
  Ag  Ag10298   1.0  0.96429  0.07143  0.89286  1.0000
  Ag  Ag10299   1.0  0.96429  0.10714  0.85714  1.0000
  Ag  Ag10300   1.0  0.92857  0.07143  0.92857  1.0000
  Ag  Ag10301   1.0  0.92857  0.10714  0.96429  1.0000
  Ag  Ag10302   1.0  0.96429  0.07143  0.96429  1.0000
  Ag  Ag10303   1.0  0.96429  0.10714  0.92857  1.0000
  Ag  Ag10304   1.0  0.92857  0.14286  0.00000  1.0000
  Ag  Ag10305   1.0  0.92857  0.17857  0.03571  1.0000
  Ag  Ag10306   1.0  0.96429  0.14286  0.03571  1.0000
  Ag  Ag10307   1.0  0.96429  0.17857  0.00000  1.0000
  Ag  Ag10308   1.0  0.92857  0.14286  0.07143  1.0000
  Ag  Ag10309   1.0  0.92857  0.17857  0.10714  1.0000
  Ag  Ag10310   1.0  0.96429  0.14286  0.10714  1.0000
  Ag  Ag10311   1.0  0.96429  0.17857  0.07143  1.0000
  Ag  Ag10312   1.0  0.92857  0.14286  0.14286  1.0000
  Ag  Ag10313   1.0  0.92857  0.17857  0.17857  1.0000
  Ag  Ag10314   1.0  0.96429  0.14286  0.17857  1.0000
  Ag  Ag10315   1.0  0.96429  0.17857  0.14286  1.0000
  Ag  Ag10316   1.0  0.92857  0.14286  0.21429  1.0000
  Ag  Ag10317   1.0  0.92857  0.17857  0.25000  1.0000
  Ag  Ag10318   1.0  0.96429  0.14286  0.25000  1.0000
  Ag  Ag10319   1.0  0.96429  0.17857  0.21429  1.0000
  Ag  Ag10320   1.0  0.92857  0.14286  0.28571  1.0000
  Ag  Ag10321   1.0  0.92857  0.17857  0.32143  1.0000
  Ag  Ag10322   1.0  0.96429  0.14286  0.32143  1.0000
  Ag  Ag10323   1.0  0.96429  0.17857  0.28571  1.0000
  Ag  Ag10324   1.0  0.92857  0.14286  0.35714  1.0000
  Ag  Ag10325   1.0  0.92857  0.17857  0.39286  1.0000
  Ag  Ag10326   1.0  0.96429  0.14286  0.39286  1.0000
  Ag  Ag10327   1.0  0.96429  0.17857  0.35714  1.0000
  Ag  Ag10328   1.0  0.92857  0.14286  0.42857  1.0000
  Ag  Ag10329   1.0  0.92857  0.17857  0.46429  1.0000
  Ag  Ag10330   1.0  0.96429  0.14286  0.46429  1.0000
  Ag  Ag10331   1.0  0.96429  0.17857  0.42857  1.0000
  Ag  Ag10332   1.0  0.92857  0.14286  0.50000  1.0000
  Ag  Ag10333   1.0  0.92857  0.17857  0.53571  1.0000
  Ag  Ag10334   1.0  0.96429  0.14286  0.53571  1.0000
  Ag  Ag10335   1.0  0.96429  0.17857  0.50000  1.0000
  Ag  Ag10336   1.0  0.92857  0.14286  0.57143  1.0000
  Ag  Ag10337   1.0  0.92857  0.17857  0.60714  1.0000
  Ag  Ag10338   1.0  0.96429  0.14286  0.60714  1.0000
  Ag  Ag10339   1.0  0.96429  0.17857  0.57143  1.0000
  Ag  Ag10340   1.0  0.92857  0.14286  0.64286  1.0000
  Ag  Ag10341   1.0  0.92857  0.17857  0.67857  1.0000
  Ag  Ag10342   1.0  0.96429  0.14286  0.67857  1.0000
  Ag  Ag10343   1.0  0.96429  0.17857  0.64286  1.0000
  Ag  Ag10344   1.0  0.92857  0.14286  0.71429  1.0000
  Ag  Ag10345   1.0  0.92857  0.17857  0.75000  1.0000
  Ag  Ag10346   1.0  0.96429  0.14286  0.75000  1.0000
  Ag  Ag10347   1.0  0.96429  0.17857  0.71429  1.0000
  Ag  Ag10348   1.0  0.92857  0.14286  0.78571  1.0000
  Ag  Ag10349   1.0  0.92857  0.17857  0.82143  1.0000
  Ag  Ag10350   1.0  0.96429  0.14286  0.82143  1.0000
  Ag  Ag10351   1.0  0.96429  0.17857  0.78571  1.0000
  Ag  Ag10352   1.0  0.92857  0.14286  0.85714  1.0000
  Ag  Ag10353   1.0  0.92857  0.17857  0.89286  1.0000
  Ag  Ag10354   1.0  0.96429  0.14286  0.89286  1.0000
  Ag  Ag10355   1.0  0.96429  0.17857  0.85714  1.0000
  Ag  Ag10356   1.0  0.92857  0.14286  0.92857  1.0000
  Ag  Ag10357   1.0  0.92857  0.17857  0.96429  1.0000
  Ag  Ag10358   1.0  0.96429  0.14286  0.96429  1.0000
  Ag  Ag10359   1.0  0.96429  0.17857  0.92857  1.0000
  Ag  Ag10360   1.0  0.92857  0.21429  0.00000  1.0000
  Ag  Ag10361   1.0  0.92857  0.25000  0.03571  1.0000
  Ag  Ag10362   1.0  0.96429  0.21429  0.03571  1.0000
  Ag  Ag10363   1.0  0.96429  0.25000  0.00000  1.0000
  Ag  Ag10364   1.0  0.92857  0.21429  0.07143  1.0000
  Ag  Ag10365   1.0  0.92857  0.25000  0.10714  1.0000
  Ag  Ag10366   1.0  0.96429  0.21429  0.10714  1.0000
  Ag  Ag10367   1.0  0.96429  0.25000  0.07143  1.0000
  Ag  Ag10368   1.0  0.92857  0.21429  0.14286  1.0000
  Ag  Ag10369   1.0  0.92857  0.25000  0.17857  1.0000
  Ag  Ag10370   1.0  0.96429  0.21429  0.17857  1.0000
  Ag  Ag10371   1.0  0.96429  0.25000  0.14286  1.0000
  Ag  Ag10372   1.0  0.92857  0.21429  0.21429  1.0000
  Ag  Ag10373   1.0  0.92857  0.25000  0.25000  1.0000
  Ag  Ag10374   1.0  0.96429  0.21429  0.25000  1.0000
  Ag  Ag10375   1.0  0.96429  0.25000  0.21429  1.0000
  Ag  Ag10376   1.0  0.92857  0.21429  0.28571  1.0000
  Ag  Ag10377   1.0  0.92857  0.25000  0.32143  1.0000
  Ag  Ag10378   1.0  0.96429  0.21429  0.32143  1.0000
  Ag  Ag10379   1.0  0.96429  0.25000  0.28571  1.0000
  Ag  Ag10380   1.0  0.92857  0.21429  0.35714  1.0000
  Ag  Ag10381   1.0  0.92857  0.25000  0.39286  1.0000
  Ag  Ag10382   1.0  0.96429  0.21429  0.39286  1.0000
  Ag  Ag10383   1.0  0.96429  0.25000  0.35714  1.0000
  Ag  Ag10384   1.0  0.92857  0.21429  0.42857  1.0000
  Ag  Ag10385   1.0  0.92857  0.25000  0.46429  1.0000
  Ag  Ag10386   1.0  0.96429  0.21429  0.46429  1.0000
  Ag  Ag10387   1.0  0.96429  0.25000  0.42857  1.0000
  Ag  Ag10388   1.0  0.92857  0.21429  0.50000  1.0000
  Ag  Ag10389   1.0  0.92857  0.25000  0.53571  1.0000
  Ag  Ag10390   1.0  0.96429  0.21429  0.53571  1.0000
  Ag  Ag10391   1.0  0.96429  0.25000  0.50000  1.0000
  Ag  Ag10392   1.0  0.92857  0.21429  0.57143  1.0000
  Ag  Ag10393   1.0  0.92857  0.25000  0.60714  1.0000
  Ag  Ag10394   1.0  0.96429  0.21429  0.60714  1.0000
  Ag  Ag10395   1.0  0.96429  0.25000  0.57143  1.0000
  Ag  Ag10396   1.0  0.92857  0.21429  0.64286  1.0000
  Ag  Ag10397   1.0  0.92857  0.25000  0.67857  1.0000
  Ag  Ag10398   1.0  0.96429  0.21429  0.67857  1.0000
  Ag  Ag10399   1.0  0.96429  0.25000  0.64286  1.0000
  Ag  Ag10400   1.0  0.92857  0.21429  0.71429  1.0000
  Ag  Ag10401   1.0  0.92857  0.25000  0.75000  1.0000
  Ag  Ag10402   1.0  0.96429  0.21429  0.75000  1.0000
  Ag  Ag10403   1.0  0.96429  0.25000  0.71429  1.0000
  Ag  Ag10404   1.0  0.92857  0.21429  0.78571  1.0000
  Ag  Ag10405   1.0  0.92857  0.25000  0.82143  1.0000
  Ag  Ag10406   1.0  0.96429  0.21429  0.82143  1.0000
  Ag  Ag10407   1.0  0.96429  0.25000  0.78571  1.0000
  Ag  Ag10408   1.0  0.92857  0.21429  0.85714  1.0000
  Ag  Ag10409   1.0  0.92857  0.25000  0.89286  1.0000
  Ag  Ag10410   1.0  0.96429  0.21429  0.89286  1.0000
  Ag  Ag10411   1.0  0.96429  0.25000  0.85714  1.0000
  Ag  Ag10412   1.0  0.92857  0.21429  0.92857  1.0000
  Ag  Ag10413   1.0  0.92857  0.25000  0.96429  1.0000
  Ag  Ag10414   1.0  0.96429  0.21429  0.96429  1.0000
  Ag  Ag10415   1.0  0.96429  0.25000  0.92857  1.0000
  Ag  Ag10416   1.0  0.92857  0.28571  0.00000  1.0000
  Ag  Ag10417   1.0  0.92857  0.32143  0.03571  1.0000
  Ag  Ag10418   1.0  0.96429  0.28571  0.03571  1.0000
  Ag  Ag10419   1.0  0.96429  0.32143  0.00000  1.0000
  Ag  Ag10420   1.0  0.92857  0.28571  0.07143  1.0000
  Ag  Ag10421   1.0  0.92857  0.32143  0.10714  1.0000
  Ag  Ag10422   1.0  0.96429  0.28571  0.10714  1.0000
  Ag  Ag10423   1.0  0.96429  0.32143  0.07143  1.0000
  Ag  Ag10424   1.0  0.92857  0.28571  0.14286  1.0000
  Ag  Ag10425   1.0  0.92857  0.32143  0.17857  1.0000
  Ag  Ag10426   1.0  0.96429  0.28571  0.17857  1.0000
  Ag  Ag10427   1.0  0.96429  0.32143  0.14286  1.0000
  Ag  Ag10428   1.0  0.92857  0.28571  0.21429  1.0000
  Ag  Ag10429   1.0  0.92857  0.32143  0.25000  1.0000
  Ag  Ag10430   1.0  0.96429  0.28571  0.25000  1.0000
  Ag  Ag10431   1.0  0.96429  0.32143  0.21429  1.0000
  Ag  Ag10432   1.0  0.92857  0.28571  0.28571  1.0000
  Ag  Ag10433   1.0  0.92857  0.32143  0.32143  1.0000
  Ag  Ag10434   1.0  0.96429  0.28571  0.32143  1.0000
  Ag  Ag10435   1.0  0.96429  0.32143  0.28571  1.0000
  Ag  Ag10436   1.0  0.92857  0.28571  0.35714  1.0000
  Ag  Ag10437   1.0  0.92857  0.32143  0.39286  1.0000
  Ag  Ag10438   1.0  0.96429  0.28571  0.39286  1.0000
  Ag  Ag10439   1.0  0.96429  0.32143  0.35714  1.0000
  Ag  Ag10440   1.0  0.92857  0.28571  0.42857  1.0000
  Ag  Ag10441   1.0  0.92857  0.32143  0.46429  1.0000
  Ag  Ag10442   1.0  0.96429  0.28571  0.46429  1.0000
  Ag  Ag10443   1.0  0.96429  0.32143  0.42857  1.0000
  Ag  Ag10444   1.0  0.92857  0.28571  0.50000  1.0000
  Ag  Ag10445   1.0  0.92857  0.32143  0.53571  1.0000
  Ag  Ag10446   1.0  0.96429  0.28571  0.53571  1.0000
  Ag  Ag10447   1.0  0.96429  0.32143  0.50000  1.0000
  Ag  Ag10448   1.0  0.92857  0.28571  0.57143  1.0000
  Ag  Ag10449   1.0  0.92857  0.32143  0.60714  1.0000
  Ag  Ag10450   1.0  0.96429  0.28571  0.60714  1.0000
  Ag  Ag10451   1.0  0.96429  0.32143  0.57143  1.0000
  Ag  Ag10452   1.0  0.92857  0.28571  0.64286  1.0000
  Ag  Ag10453   1.0  0.92857  0.32143  0.67857  1.0000
  Ag  Ag10454   1.0  0.96429  0.28571  0.67857  1.0000
  Ag  Ag10455   1.0  0.96429  0.32143  0.64286  1.0000
  Ag  Ag10456   1.0  0.92857  0.28571  0.71429  1.0000
  Ag  Ag10457   1.0  0.92857  0.32143  0.75000  1.0000
  Ag  Ag10458   1.0  0.96429  0.28571  0.75000  1.0000
  Ag  Ag10459   1.0  0.96429  0.32143  0.71429  1.0000
  Ag  Ag10460   1.0  0.92857  0.28571  0.78571  1.0000
  Ag  Ag10461   1.0  0.92857  0.32143  0.82143  1.0000
  Ag  Ag10462   1.0  0.96429  0.28571  0.82143  1.0000
  Ag  Ag10463   1.0  0.96429  0.32143  0.78571  1.0000
  Ag  Ag10464   1.0  0.92857  0.28571  0.85714  1.0000
  Ag  Ag10465   1.0  0.92857  0.32143  0.89286  1.0000
  Ag  Ag10466   1.0  0.96429  0.28571  0.89286  1.0000
  Ag  Ag10467   1.0  0.96429  0.32143  0.85714  1.0000
  Ag  Ag10468   1.0  0.92857  0.28571  0.92857  1.0000
  Ag  Ag10469   1.0  0.92857  0.32143  0.96429  1.0000
  Ag  Ag10470   1.0  0.96429  0.28571  0.96429  1.0000
  Ag  Ag10471   1.0  0.96429  0.32143  0.92857  1.0000
  Ag  Ag10472   1.0  0.92857  0.35714  0.00000  1.0000
  Ag  Ag10473   1.0  0.92857  0.39286  0.03571  1.0000
  Ag  Ag10474   1.0  0.96429  0.35714  0.03571  1.0000
  Ag  Ag10475   1.0  0.96429  0.39286  0.00000  1.0000
  Ag  Ag10476   1.0  0.92857  0.35714  0.07143  1.0000
  Ag  Ag10477   1.0  0.92857  0.39286  0.10714  1.0000
  Ag  Ag10478   1.0  0.96429  0.35714  0.10714  1.0000
  Ag  Ag10479   1.0  0.96429  0.39286  0.07143  1.0000
  Ag  Ag10480   1.0  0.92857  0.35714  0.14286  1.0000
  Ag  Ag10481   1.0  0.92857  0.39286  0.17857  1.0000
  Ag  Ag10482   1.0  0.96429  0.35714  0.17857  1.0000
  Ag  Ag10483   1.0  0.96429  0.39286  0.14286  1.0000
  Ag  Ag10484   1.0  0.92857  0.35714  0.21429  1.0000
  Ag  Ag10485   1.0  0.92857  0.39286  0.25000  1.0000
  Ag  Ag10486   1.0  0.96429  0.35714  0.25000  1.0000
  Ag  Ag10487   1.0  0.96429  0.39286  0.21429  1.0000
  Ag  Ag10488   1.0  0.92857  0.35714  0.28571  1.0000
  Ag  Ag10489   1.0  0.92857  0.39286  0.32143  1.0000
  Ag  Ag10490   1.0  0.96429  0.35714  0.32143  1.0000
  Ag  Ag10491   1.0  0.96429  0.39286  0.28571  1.0000
  Ag  Ag10492   1.0  0.92857  0.35714  0.35714  1.0000
  Ag  Ag10493   1.0  0.92857  0.39286  0.39286  1.0000
  Ag  Ag10494   1.0  0.96429  0.35714  0.39286  1.0000
  Ag  Ag10495   1.0  0.96429  0.39286  0.35714  1.0000
  Ag  Ag10496   1.0  0.92857  0.35714  0.42857  1.0000
  Ag  Ag10497   1.0  0.92857  0.39286  0.46429  1.0000
  Ag  Ag10498   1.0  0.96429  0.35714  0.46429  1.0000
  Ag  Ag10499   1.0  0.96429  0.39286  0.42857  1.0000
  Ag  Ag10500   1.0  0.92857  0.35714  0.50000  1.0000
  Ag  Ag10501   1.0  0.92857  0.39286  0.53571  1.0000
  Ag  Ag10502   1.0  0.96429  0.35714  0.53571  1.0000
  Ag  Ag10503   1.0  0.96429  0.39286  0.50000  1.0000
  Ag  Ag10504   1.0  0.92857  0.35714  0.57143  1.0000
  Ag  Ag10505   1.0  0.92857  0.39286  0.60714  1.0000
  Ag  Ag10506   1.0  0.96429  0.35714  0.60714  1.0000
  Ag  Ag10507   1.0  0.96429  0.39286  0.57143  1.0000
  Ag  Ag10508   1.0  0.92857  0.35714  0.64286  1.0000
  Ag  Ag10509   1.0  0.92857  0.39286  0.67857  1.0000
  Ag  Ag10510   1.0  0.96429  0.35714  0.67857  1.0000
  Ag  Ag10511   1.0  0.96429  0.39286  0.64286  1.0000
  Ag  Ag10512   1.0  0.92857  0.35714  0.71429  1.0000
  Ag  Ag10513   1.0  0.92857  0.39286  0.75000  1.0000
  Ag  Ag10514   1.0  0.96429  0.35714  0.75000  1.0000
  Ag  Ag10515   1.0  0.96429  0.39286  0.71429  1.0000
  Ag  Ag10516   1.0  0.92857  0.35714  0.78571  1.0000
  Ag  Ag10517   1.0  0.92857  0.39286  0.82143  1.0000
  Ag  Ag10518   1.0  0.96429  0.35714  0.82143  1.0000
  Ag  Ag10519   1.0  0.96429  0.39286  0.78571  1.0000
  Ag  Ag10520   1.0  0.92857  0.35714  0.85714  1.0000
  Ag  Ag10521   1.0  0.92857  0.39286  0.89286  1.0000
  Ag  Ag10522   1.0  0.96429  0.35714  0.89286  1.0000
  Ag  Ag10523   1.0  0.96429  0.39286  0.85714  1.0000
  Ag  Ag10524   1.0  0.92857  0.35714  0.92857  1.0000
  Ag  Ag10525   1.0  0.92857  0.39286  0.96429  1.0000
  Ag  Ag10526   1.0  0.96429  0.35714  0.96429  1.0000
  Ag  Ag10527   1.0  0.96429  0.39286  0.92857  1.0000
  Ag  Ag10528   1.0  0.92857  0.42857  0.00000  1.0000
  Ag  Ag10529   1.0  0.92857  0.46429  0.03571  1.0000
  Ag  Ag10530   1.0  0.96429  0.42857  0.03571  1.0000
  Ag  Ag10531   1.0  0.96429  0.46429  0.00000  1.0000
  Ag  Ag10532   1.0  0.92857  0.42857  0.07143  1.0000
  Ag  Ag10533   1.0  0.92857  0.46429  0.10714  1.0000
  Ag  Ag10534   1.0  0.96429  0.42857  0.10714  1.0000
  Ag  Ag10535   1.0  0.96429  0.46429  0.07143  1.0000
  Ag  Ag10536   1.0  0.92857  0.42857  0.14286  1.0000
  Ag  Ag10537   1.0  0.92857  0.46429  0.17857  1.0000
  Ag  Ag10538   1.0  0.96429  0.42857  0.17857  1.0000
  Ag  Ag10539   1.0  0.96429  0.46429  0.14286  1.0000
  Ag  Ag10540   1.0  0.92857  0.42857  0.21429  1.0000
  Ag  Ag10541   1.0  0.92857  0.46429  0.25000  1.0000
  Ag  Ag10542   1.0  0.96429  0.42857  0.25000  1.0000
  Ag  Ag10543   1.0  0.96429  0.46429  0.21429  1.0000
  Ag  Ag10544   1.0  0.92857  0.42857  0.28571  1.0000
  Ag  Ag10545   1.0  0.92857  0.46429  0.32143  1.0000
  Ag  Ag10546   1.0  0.96429  0.42857  0.32143  1.0000
  Ag  Ag10547   1.0  0.96429  0.46429  0.28571  1.0000
  Ag  Ag10548   1.0  0.92857  0.42857  0.35714  1.0000
  Ag  Ag10549   1.0  0.92857  0.46429  0.39286  1.0000
  Ag  Ag10550   1.0  0.96429  0.42857  0.39286  1.0000
  Ag  Ag10551   1.0  0.96429  0.46429  0.35714  1.0000
  Ag  Ag10552   1.0  0.92857  0.42857  0.42857  1.0000
  Ag  Ag10553   1.0  0.92857  0.46429  0.46429  1.0000
  Ag  Ag10554   1.0  0.96429  0.42857  0.46429  1.0000
  Ag  Ag10555   1.0  0.96429  0.46429  0.42857  1.0000
  Ag  Ag10556   1.0  0.92857  0.42857  0.50000  1.0000
  Ag  Ag10557   1.0  0.92857  0.46429  0.53571  1.0000
  Ag  Ag10558   1.0  0.96429  0.42857  0.53571  1.0000
  Ag  Ag10559   1.0  0.96429  0.46429  0.50000  1.0000
  Ag  Ag10560   1.0  0.92857  0.42857  0.57143  1.0000
  Ag  Ag10561   1.0  0.92857  0.46429  0.60714  1.0000
  Ag  Ag10562   1.0  0.96429  0.42857  0.60714  1.0000
  Ag  Ag10563   1.0  0.96429  0.46429  0.57143  1.0000
  Ag  Ag10564   1.0  0.92857  0.42857  0.64286  1.0000
  Ag  Ag10565   1.0  0.92857  0.46429  0.67857  1.0000
  Ag  Ag10566   1.0  0.96429  0.42857  0.67857  1.0000
  Ag  Ag10567   1.0  0.96429  0.46429  0.64286  1.0000
  Ag  Ag10568   1.0  0.92857  0.42857  0.71429  1.0000
  Ag  Ag10569   1.0  0.92857  0.46429  0.75000  1.0000
  Ag  Ag10570   1.0  0.96429  0.42857  0.75000  1.0000
  Ag  Ag10571   1.0  0.96429  0.46429  0.71429  1.0000
  Ag  Ag10572   1.0  0.92857  0.42857  0.78571  1.0000
  Ag  Ag10573   1.0  0.92857  0.46429  0.82143  1.0000
  Ag  Ag10574   1.0  0.96429  0.42857  0.82143  1.0000
  Ag  Ag10575   1.0  0.96429  0.46429  0.78571  1.0000
  Ag  Ag10576   1.0  0.92857  0.42857  0.85714  1.0000
  Ag  Ag10577   1.0  0.92857  0.46429  0.89286  1.0000
  Ag  Ag10578   1.0  0.96429  0.42857  0.89286  1.0000
  Ag  Ag10579   1.0  0.96429  0.46429  0.85714  1.0000
  Ag  Ag10580   1.0  0.92857  0.42857  0.92857  1.0000
  Ag  Ag10581   1.0  0.92857  0.46429  0.96429  1.0000
  Ag  Ag10582   1.0  0.96429  0.42857  0.96429  1.0000
  Ag  Ag10583   1.0  0.96429  0.46429  0.92857  1.0000
  Ag  Ag10584   1.0  0.92857  0.50000  0.00000  1.0000
  Ag  Ag10585   1.0  0.92857  0.53571  0.03571  1.0000
  Ag  Ag10586   1.0  0.96429  0.50000  0.03571  1.0000
  Ag  Ag10587   1.0  0.96429  0.53571  0.00000  1.0000
  Ag  Ag10588   1.0  0.92857  0.50000  0.07143  1.0000
  Ag  Ag10589   1.0  0.92857  0.53571  0.10714  1.0000
  Ag  Ag10590   1.0  0.96429  0.50000  0.10714  1.0000
  Ag  Ag10591   1.0  0.96429  0.53571  0.07143  1.0000
  Ag  Ag10592   1.0  0.92857  0.50000  0.14286  1.0000
  Ag  Ag10593   1.0  0.92857  0.53571  0.17857  1.0000
  Ag  Ag10594   1.0  0.96429  0.50000  0.17857  1.0000
  Ag  Ag10595   1.0  0.96429  0.53571  0.14286  1.0000
  Ag  Ag10596   1.0  0.92857  0.50000  0.21429  1.0000
  Ag  Ag10597   1.0  0.92857  0.53571  0.25000  1.0000
  Ag  Ag10598   1.0  0.96429  0.50000  0.25000  1.0000
  Ag  Ag10599   1.0  0.96429  0.53571  0.21429  1.0000
  Ag  Ag10600   1.0  0.92857  0.50000  0.28571  1.0000
  Ag  Ag10601   1.0  0.92857  0.53571  0.32143  1.0000
  Ag  Ag10602   1.0  0.96429  0.50000  0.32143  1.0000
  Ag  Ag10603   1.0  0.96429  0.53571  0.28571  1.0000
  Ag  Ag10604   1.0  0.92857  0.50000  0.35714  1.0000
  Ag  Ag10605   1.0  0.92857  0.53571  0.39286  1.0000
  Ag  Ag10606   1.0  0.96429  0.50000  0.39286  1.0000
  Ag  Ag10607   1.0  0.96429  0.53571  0.35714  1.0000
  Ag  Ag10608   1.0  0.92857  0.50000  0.42857  1.0000
  Ag  Ag10609   1.0  0.92857  0.53571  0.46429  1.0000
  Ag  Ag10610   1.0  0.96429  0.50000  0.46429  1.0000
  Ag  Ag10611   1.0  0.96429  0.53571  0.42857  1.0000
  Ag  Ag10612   1.0  0.92857  0.50000  0.50000  1.0000
  Ag  Ag10613   1.0  0.92857  0.53571  0.53571  1.0000
  Ag  Ag10614   1.0  0.96429  0.50000  0.53571  1.0000
  Ag  Ag10615   1.0  0.96429  0.53571  0.50000  1.0000
  Ag  Ag10616   1.0  0.92857  0.50000  0.57143  1.0000
  Ag  Ag10617   1.0  0.92857  0.53571  0.60714  1.0000
  Ag  Ag10618   1.0  0.96429  0.50000  0.60714  1.0000
  Ag  Ag10619   1.0  0.96429  0.53571  0.57143  1.0000
  Ag  Ag10620   1.0  0.92857  0.50000  0.64286  1.0000
  Ag  Ag10621   1.0  0.92857  0.53571  0.67857  1.0000
  Ag  Ag10622   1.0  0.96429  0.50000  0.67857  1.0000
  Ag  Ag10623   1.0  0.96429  0.53571  0.64286  1.0000
  Ag  Ag10624   1.0  0.92857  0.50000  0.71429  1.0000
  Ag  Ag10625   1.0  0.92857  0.53571  0.75000  1.0000
  Ag  Ag10626   1.0  0.96429  0.50000  0.75000  1.0000
  Ag  Ag10627   1.0  0.96429  0.53571  0.71429  1.0000
  Ag  Ag10628   1.0  0.92857  0.50000  0.78571  1.0000
  Ag  Ag10629   1.0  0.92857  0.53571  0.82143  1.0000
  Ag  Ag10630   1.0  0.96429  0.50000  0.82143  1.0000
  Ag  Ag10631   1.0  0.96429  0.53571  0.78571  1.0000
  Ag  Ag10632   1.0  0.92857  0.50000  0.85714  1.0000
  Ag  Ag10633   1.0  0.92857  0.53571  0.89286  1.0000
  Ag  Ag10634   1.0  0.96429  0.50000  0.89286  1.0000
  Ag  Ag10635   1.0  0.96429  0.53571  0.85714  1.0000
  Ag  Ag10636   1.0  0.92857  0.50000  0.92857  1.0000
  Ag  Ag10637   1.0  0.92857  0.53571  0.96429  1.0000
  Ag  Ag10638   1.0  0.96429  0.50000  0.96429  1.0000
  Ag  Ag10639   1.0  0.96429  0.53571  0.92857  1.0000
  Ag  Ag10640   1.0  0.92857  0.57143  0.00000  1.0000
  Ag  Ag10641   1.0  0.92857  0.60714  0.03571  1.0000
  Ag  Ag10642   1.0  0.96429  0.57143  0.03571  1.0000
  Ag  Ag10643   1.0  0.96429  0.60714  0.00000  1.0000
  Ag  Ag10644   1.0  0.92857  0.57143  0.07143  1.0000
  Ag  Ag10645   1.0  0.92857  0.60714  0.10714  1.0000
  Ag  Ag10646   1.0  0.96429  0.57143  0.10714  1.0000
  Ag  Ag10647   1.0  0.96429  0.60714  0.07143  1.0000
  Ag  Ag10648   1.0  0.92857  0.57143  0.14286  1.0000
  Ag  Ag10649   1.0  0.92857  0.60714  0.17857  1.0000
  Ag  Ag10650   1.0  0.96429  0.57143  0.17857  1.0000
  Ag  Ag10651   1.0  0.96429  0.60714  0.14286  1.0000
  Ag  Ag10652   1.0  0.92857  0.57143  0.21429  1.0000
  Ag  Ag10653   1.0  0.92857  0.60714  0.25000  1.0000
  Ag  Ag10654   1.0  0.96429  0.57143  0.25000  1.0000
  Ag  Ag10655   1.0  0.96429  0.60714  0.21429  1.0000
  Ag  Ag10656   1.0  0.92857  0.57143  0.28571  1.0000
  Ag  Ag10657   1.0  0.92857  0.60714  0.32143  1.0000
  Ag  Ag10658   1.0  0.96429  0.57143  0.32143  1.0000
  Ag  Ag10659   1.0  0.96429  0.60714  0.28571  1.0000
  Ag  Ag10660   1.0  0.92857  0.57143  0.35714  1.0000
  Ag  Ag10661   1.0  0.92857  0.60714  0.39286  1.0000
  Ag  Ag10662   1.0  0.96429  0.57143  0.39286  1.0000
  Ag  Ag10663   1.0  0.96429  0.60714  0.35714  1.0000
  Ag  Ag10664   1.0  0.92857  0.57143  0.42857  1.0000
  Ag  Ag10665   1.0  0.92857  0.60714  0.46429  1.0000
  Ag  Ag10666   1.0  0.96429  0.57143  0.46429  1.0000
  Ag  Ag10667   1.0  0.96429  0.60714  0.42857  1.0000
  Ag  Ag10668   1.0  0.92857  0.57143  0.50000  1.0000
  Ag  Ag10669   1.0  0.92857  0.60714  0.53571  1.0000
  Ag  Ag10670   1.0  0.96429  0.57143  0.53571  1.0000
  Ag  Ag10671   1.0  0.96429  0.60714  0.50000  1.0000
  Ag  Ag10672   1.0  0.92857  0.57143  0.57143  1.0000
  Ag  Ag10673   1.0  0.92857  0.60714  0.60714  1.0000
  Ag  Ag10674   1.0  0.96429  0.57143  0.60714  1.0000
  Ag  Ag10675   1.0  0.96429  0.60714  0.57143  1.0000
  Ag  Ag10676   1.0  0.92857  0.57143  0.64286  1.0000
  Ag  Ag10677   1.0  0.92857  0.60714  0.67857  1.0000
  Ag  Ag10678   1.0  0.96429  0.57143  0.67857  1.0000
  Ag  Ag10679   1.0  0.96429  0.60714  0.64286  1.0000
  Ag  Ag10680   1.0  0.92857  0.57143  0.71429  1.0000
  Ag  Ag10681   1.0  0.92857  0.60714  0.75000  1.0000
  Ag  Ag10682   1.0  0.96429  0.57143  0.75000  1.0000
  Ag  Ag10683   1.0  0.96429  0.60714  0.71429  1.0000
  Ag  Ag10684   1.0  0.92857  0.57143  0.78571  1.0000
  Ag  Ag10685   1.0  0.92857  0.60714  0.82143  1.0000
  Ag  Ag10686   1.0  0.96429  0.57143  0.82143  1.0000
  Ag  Ag10687   1.0  0.96429  0.60714  0.78571  1.0000
  Ag  Ag10688   1.0  0.92857  0.57143  0.85714  1.0000
  Ag  Ag10689   1.0  0.92857  0.60714  0.89286  1.0000
  Ag  Ag10690   1.0  0.96429  0.57143  0.89286  1.0000
  Ag  Ag10691   1.0  0.96429  0.60714  0.85714  1.0000
  Ag  Ag10692   1.0  0.92857  0.57143  0.92857  1.0000
  Ag  Ag10693   1.0  0.92857  0.60714  0.96429  1.0000
  Ag  Ag10694   1.0  0.96429  0.57143  0.96429  1.0000
  Ag  Ag10695   1.0  0.96429  0.60714  0.92857  1.0000
  Ag  Ag10696   1.0  0.92857  0.64286  0.00000  1.0000
  Ag  Ag10697   1.0  0.92857  0.67857  0.03571  1.0000
  Ag  Ag10698   1.0  0.96429  0.64286  0.03571  1.0000
  Ag  Ag10699   1.0  0.96429  0.67857  0.00000  1.0000
  Ag  Ag10700   1.0  0.92857  0.64286  0.07143  1.0000
  Ag  Ag10701   1.0  0.92857  0.67857  0.10714  1.0000
  Ag  Ag10702   1.0  0.96429  0.64286  0.10714  1.0000
  Ag  Ag10703   1.0  0.96429  0.67857  0.07143  1.0000
  Ag  Ag10704   1.0  0.92857  0.64286  0.14286  1.0000
  Ag  Ag10705   1.0  0.92857  0.67857  0.17857  1.0000
  Ag  Ag10706   1.0  0.96429  0.64286  0.17857  1.0000
  Ag  Ag10707   1.0  0.96429  0.67857  0.14286  1.0000
  Ag  Ag10708   1.0  0.92857  0.64286  0.21429  1.0000
  Ag  Ag10709   1.0  0.92857  0.67857  0.25000  1.0000
  Ag  Ag10710   1.0  0.96429  0.64286  0.25000  1.0000
  Ag  Ag10711   1.0  0.96429  0.67857  0.21429  1.0000
  Ag  Ag10712   1.0  0.92857  0.64286  0.28571  1.0000
  Ag  Ag10713   1.0  0.92857  0.67857  0.32143  1.0000
  Ag  Ag10714   1.0  0.96429  0.64286  0.32143  1.0000
  Ag  Ag10715   1.0  0.96429  0.67857  0.28571  1.0000
  Ag  Ag10716   1.0  0.92857  0.64286  0.35714  1.0000
  Ag  Ag10717   1.0  0.92857  0.67857  0.39286  1.0000
  Ag  Ag10718   1.0  0.96429  0.64286  0.39286  1.0000
  Ag  Ag10719   1.0  0.96429  0.67857  0.35714  1.0000
  Ag  Ag10720   1.0  0.92857  0.64286  0.42857  1.0000
  Ag  Ag10721   1.0  0.92857  0.67857  0.46429  1.0000
  Ag  Ag10722   1.0  0.96429  0.64286  0.46429  1.0000
  Ag  Ag10723   1.0  0.96429  0.67857  0.42857  1.0000
  Ag  Ag10724   1.0  0.92857  0.64286  0.50000  1.0000
  Ag  Ag10725   1.0  0.92857  0.67857  0.53571  1.0000
  Ag  Ag10726   1.0  0.96429  0.64286  0.53571  1.0000
  Ag  Ag10727   1.0  0.96429  0.67857  0.50000  1.0000
  Ag  Ag10728   1.0  0.92857  0.64286  0.57143  1.0000
  Ag  Ag10729   1.0  0.92857  0.67857  0.60714  1.0000
  Ag  Ag10730   1.0  0.96429  0.64286  0.60714  1.0000
  Ag  Ag10731   1.0  0.96429  0.67857  0.57143  1.0000
  Ag  Ag10732   1.0  0.92857  0.64286  0.64286  1.0000
  Ag  Ag10733   1.0  0.92857  0.67857  0.67857  1.0000
  Ag  Ag10734   1.0  0.96429  0.64286  0.67857  1.0000
  Ag  Ag10735   1.0  0.96429  0.67857  0.64286  1.0000
  Ag  Ag10736   1.0  0.92857  0.64286  0.71429  1.0000
  Ag  Ag10737   1.0  0.92857  0.67857  0.75000  1.0000
  Ag  Ag10738   1.0  0.96429  0.64286  0.75000  1.0000
  Ag  Ag10739   1.0  0.96429  0.67857  0.71429  1.0000
  Ag  Ag10740   1.0  0.92857  0.64286  0.78571  1.0000
  Ag  Ag10741   1.0  0.92857  0.67857  0.82143  1.0000
  Ag  Ag10742   1.0  0.96429  0.64286  0.82143  1.0000
  Ag  Ag10743   1.0  0.96429  0.67857  0.78571  1.0000
  Ag  Ag10744   1.0  0.92857  0.64286  0.85714  1.0000
  Ag  Ag10745   1.0  0.92857  0.67857  0.89286  1.0000
  Ag  Ag10746   1.0  0.96429  0.64286  0.89286  1.0000
  Ag  Ag10747   1.0  0.96429  0.67857  0.85714  1.0000
  Ag  Ag10748   1.0  0.92857  0.64286  0.92857  1.0000
  Ag  Ag10749   1.0  0.92857  0.67857  0.96429  1.0000
  Ag  Ag10750   1.0  0.96429  0.64286  0.96429  1.0000
  Ag  Ag10751   1.0  0.96429  0.67857  0.92857  1.0000
  Ag  Ag10752   1.0  0.92857  0.71429  0.00000  1.0000
  Ag  Ag10753   1.0  0.92857  0.75000  0.03571  1.0000
  Ag  Ag10754   1.0  0.96429  0.71429  0.03571  1.0000
  Ag  Ag10755   1.0  0.96429  0.75000  0.00000  1.0000
  Ag  Ag10756   1.0  0.92857  0.71429  0.07143  1.0000
  Ag  Ag10757   1.0  0.92857  0.75000  0.10714  1.0000
  Ag  Ag10758   1.0  0.96429  0.71429  0.10714  1.0000
  Ag  Ag10759   1.0  0.96429  0.75000  0.07143  1.0000
  Ag  Ag10760   1.0  0.92857  0.71429  0.14286  1.0000
  Ag  Ag10761   1.0  0.92857  0.75000  0.17857  1.0000
  Ag  Ag10762   1.0  0.96429  0.71429  0.17857  1.0000
  Ag  Ag10763   1.0  0.96429  0.75000  0.14286  1.0000
  Ag  Ag10764   1.0  0.92857  0.71429  0.21429  1.0000
  Ag  Ag10765   1.0  0.92857  0.75000  0.25000  1.0000
  Ag  Ag10766   1.0  0.96429  0.71429  0.25000  1.0000
  Ag  Ag10767   1.0  0.96429  0.75000  0.21429  1.0000
  Ag  Ag10768   1.0  0.92857  0.71429  0.28571  1.0000
  Ag  Ag10769   1.0  0.92857  0.75000  0.32143  1.0000
  Ag  Ag10770   1.0  0.96429  0.71429  0.32143  1.0000
  Ag  Ag10771   1.0  0.96429  0.75000  0.28571  1.0000
  Ag  Ag10772   1.0  0.92857  0.71429  0.35714  1.0000
  Ag  Ag10773   1.0  0.92857  0.75000  0.39286  1.0000
  Ag  Ag10774   1.0  0.96429  0.71429  0.39286  1.0000
  Ag  Ag10775   1.0  0.96429  0.75000  0.35714  1.0000
  Ag  Ag10776   1.0  0.92857  0.71429  0.42857  1.0000
  Ag  Ag10777   1.0  0.92857  0.75000  0.46429  1.0000
  Ag  Ag10778   1.0  0.96429  0.71429  0.46429  1.0000
  Ag  Ag10779   1.0  0.96429  0.75000  0.42857  1.0000
  Ag  Ag10780   1.0  0.92857  0.71429  0.50000  1.0000
  Ag  Ag10781   1.0  0.92857  0.75000  0.53571  1.0000
  Ag  Ag10782   1.0  0.96429  0.71429  0.53571  1.0000
  Ag  Ag10783   1.0  0.96429  0.75000  0.50000  1.0000
  Ag  Ag10784   1.0  0.92857  0.71429  0.57143  1.0000
  Ag  Ag10785   1.0  0.92857  0.75000  0.60714  1.0000
  Ag  Ag10786   1.0  0.96429  0.71429  0.60714  1.0000
  Ag  Ag10787   1.0  0.96429  0.75000  0.57143  1.0000
  Ag  Ag10788   1.0  0.92857  0.71429  0.64286  1.0000
  Ag  Ag10789   1.0  0.92857  0.75000  0.67857  1.0000
  Ag  Ag10790   1.0  0.96429  0.71429  0.67857  1.0000
  Ag  Ag10791   1.0  0.96429  0.75000  0.64286  1.0000
  Ag  Ag10792   1.0  0.92857  0.71429  0.71429  1.0000
  Ag  Ag10793   1.0  0.92857  0.75000  0.75000  1.0000
  Ag  Ag10794   1.0  0.96429  0.71429  0.75000  1.0000
  Ag  Ag10795   1.0  0.96429  0.75000  0.71429  1.0000
  Ag  Ag10796   1.0  0.92857  0.71429  0.78571  1.0000
  Ag  Ag10797   1.0  0.92857  0.75000  0.82143  1.0000
  Ag  Ag10798   1.0  0.96429  0.71429  0.82143  1.0000
  Ag  Ag10799   1.0  0.96429  0.75000  0.78571  1.0000
  Ag  Ag10800   1.0  0.92857  0.71429  0.85714  1.0000
  Ag  Ag10801   1.0  0.92857  0.75000  0.89286  1.0000
  Ag  Ag10802   1.0  0.96429  0.71429  0.89286  1.0000
  Ag  Ag10803   1.0  0.96429  0.75000  0.85714  1.0000
  Ag  Ag10804   1.0  0.92857  0.71429  0.92857  1.0000
  Ag  Ag10805   1.0  0.92857  0.75000  0.96429  1.0000
  Ag  Ag10806   1.0  0.96429  0.71429  0.96429  1.0000
  Ag  Ag10807   1.0  0.96429  0.75000  0.92857  1.0000
  Ag  Ag10808   1.0  0.92857  0.78571  0.00000  1.0000
  Ag  Ag10809   1.0  0.92857  0.82143  0.03571  1.0000
  Ag  Ag10810   1.0  0.96429  0.78571  0.03571  1.0000
  Ag  Ag10811   1.0  0.96429  0.82143  0.00000  1.0000
  Ag  Ag10812   1.0  0.92857  0.78571  0.07143  1.0000
  Ag  Ag10813   1.0  0.92857  0.82143  0.10714  1.0000
  Ag  Ag10814   1.0  0.96429  0.78571  0.10714  1.0000
  Ag  Ag10815   1.0  0.96429  0.82143  0.07143  1.0000
  Ag  Ag10816   1.0  0.92857  0.78571  0.14286  1.0000
  Ag  Ag10817   1.0  0.92857  0.82143  0.17857  1.0000
  Ag  Ag10818   1.0  0.96429  0.78571  0.17857  1.0000
  Ag  Ag10819   1.0  0.96429  0.82143  0.14286  1.0000
  Ag  Ag10820   1.0  0.92857  0.78571  0.21429  1.0000
  Ag  Ag10821   1.0  0.92857  0.82143  0.25000  1.0000
  Ag  Ag10822   1.0  0.96429  0.78571  0.25000  1.0000
  Ag  Ag10823   1.0  0.96429  0.82143  0.21429  1.0000
  Ag  Ag10824   1.0  0.92857  0.78571  0.28571  1.0000
  Ag  Ag10825   1.0  0.92857  0.82143  0.32143  1.0000
  Ag  Ag10826   1.0  0.96429  0.78571  0.32143  1.0000
  Ag  Ag10827   1.0  0.96429  0.82143  0.28571  1.0000
  Ag  Ag10828   1.0  0.92857  0.78571  0.35714  1.0000
  Ag  Ag10829   1.0  0.92857  0.82143  0.39286  1.0000
  Ag  Ag10830   1.0  0.96429  0.78571  0.39286  1.0000
  Ag  Ag10831   1.0  0.96429  0.82143  0.35714  1.0000
  Ag  Ag10832   1.0  0.92857  0.78571  0.42857  1.0000
  Ag  Ag10833   1.0  0.92857  0.82143  0.46429  1.0000
  Ag  Ag10834   1.0  0.96429  0.78571  0.46429  1.0000
  Ag  Ag10835   1.0  0.96429  0.82143  0.42857  1.0000
  Ag  Ag10836   1.0  0.92857  0.78571  0.50000  1.0000
  Ag  Ag10837   1.0  0.92857  0.82143  0.53571  1.0000
  Ag  Ag10838   1.0  0.96429  0.78571  0.53571  1.0000
  Ag  Ag10839   1.0  0.96429  0.82143  0.50000  1.0000
  Ag  Ag10840   1.0  0.92857  0.78571  0.57143  1.0000
  Ag  Ag10841   1.0  0.92857  0.82143  0.60714  1.0000
  Ag  Ag10842   1.0  0.96429  0.78571  0.60714  1.0000
  Ag  Ag10843   1.0  0.96429  0.82143  0.57143  1.0000
  Ag  Ag10844   1.0  0.92857  0.78571  0.64286  1.0000
  Ag  Ag10845   1.0  0.92857  0.82143  0.67857  1.0000
  Ag  Ag10846   1.0  0.96429  0.78571  0.67857  1.0000
  Ag  Ag10847   1.0  0.96429  0.82143  0.64286  1.0000
  Ag  Ag10848   1.0  0.92857  0.78571  0.71429  1.0000
  Ag  Ag10849   1.0  0.92857  0.82143  0.75000  1.0000
  Ag  Ag10850   1.0  0.96429  0.78571  0.75000  1.0000
  Ag  Ag10851   1.0  0.96429  0.82143  0.71429  1.0000
  Ag  Ag10852   1.0  0.92857  0.78571  0.78571  1.0000
  Ag  Ag10853   1.0  0.92857  0.82143  0.82143  1.0000
  Ag  Ag10854   1.0  0.96429  0.78571  0.82143  1.0000
  Ag  Ag10855   1.0  0.96429  0.82143  0.78571  1.0000
  Ag  Ag10856   1.0  0.92857  0.78571  0.85714  1.0000
  Ag  Ag10857   1.0  0.92857  0.82143  0.89286  1.0000
  Ag  Ag10858   1.0  0.96429  0.78571  0.89286  1.0000
  Ag  Ag10859   1.0  0.96429  0.82143  0.85714  1.0000
  Ag  Ag10860   1.0  0.92857  0.78571  0.92857  1.0000
  Ag  Ag10861   1.0  0.92857  0.82143  0.96429  1.0000
  Ag  Ag10862   1.0  0.96429  0.78571  0.96429  1.0000
  Ag  Ag10863   1.0  0.96429  0.82143  0.92857  1.0000
  Ag  Ag10864   1.0  0.92857  0.85714  0.00000  1.0000
  Ag  Ag10865   1.0  0.92857  0.89286  0.03571  1.0000
  Ag  Ag10866   1.0  0.96429  0.85714  0.03571  1.0000
  Ag  Ag10867   1.0  0.96429  0.89286  0.00000  1.0000
  Ag  Ag10868   1.0  0.92857  0.85714  0.07143  1.0000
  Ag  Ag10869   1.0  0.92857  0.89286  0.10714  1.0000
  Ag  Ag10870   1.0  0.96429  0.85714  0.10714  1.0000
  Ag  Ag10871   1.0  0.96429  0.89286  0.07143  1.0000
  Ag  Ag10872   1.0  0.92857  0.85714  0.14286  1.0000
  Ag  Ag10873   1.0  0.92857  0.89286  0.17857  1.0000
  Ag  Ag10874   1.0  0.96429  0.85714  0.17857  1.0000
  Ag  Ag10875   1.0  0.96429  0.89286  0.14286  1.0000
  Ag  Ag10876   1.0  0.92857  0.85714  0.21429  1.0000
  Ag  Ag10877   1.0  0.92857  0.89286  0.25000  1.0000
  Ag  Ag10878   1.0  0.96429  0.85714  0.25000  1.0000
  Ag  Ag10879   1.0  0.96429  0.89286  0.21429  1.0000
  Ag  Ag10880   1.0  0.92857  0.85714  0.28571  1.0000
  Ag  Ag10881   1.0  0.92857  0.89286  0.32143  1.0000
  Ag  Ag10882   1.0  0.96429  0.85714  0.32143  1.0000
  Ag  Ag10883   1.0  0.96429  0.89286  0.28571  1.0000
  Ag  Ag10884   1.0  0.92857  0.85714  0.35714  1.0000
  Ag  Ag10885   1.0  0.92857  0.89286  0.39286  1.0000
  Ag  Ag10886   1.0  0.96429  0.85714  0.39286  1.0000
  Ag  Ag10887   1.0  0.96429  0.89286  0.35714  1.0000
  Ag  Ag10888   1.0  0.92857  0.85714  0.42857  1.0000
  Ag  Ag10889   1.0  0.92857  0.89286  0.46429  1.0000
  Ag  Ag10890   1.0  0.96429  0.85714  0.46429  1.0000
  Ag  Ag10891   1.0  0.96429  0.89286  0.42857  1.0000
  Ag  Ag10892   1.0  0.92857  0.85714  0.50000  1.0000
  Ag  Ag10893   1.0  0.92857  0.89286  0.53571  1.0000
  Ag  Ag10894   1.0  0.96429  0.85714  0.53571  1.0000
  Ag  Ag10895   1.0  0.96429  0.89286  0.50000  1.0000
  Ag  Ag10896   1.0  0.92857  0.85714  0.57143  1.0000
  Ag  Ag10897   1.0  0.92857  0.89286  0.60714  1.0000
  Ag  Ag10898   1.0  0.96429  0.85714  0.60714  1.0000
  Ag  Ag10899   1.0  0.96429  0.89286  0.57143  1.0000
  Ag  Ag10900   1.0  0.92857  0.85714  0.64286  1.0000
  Ag  Ag10901   1.0  0.92857  0.89286  0.67857  1.0000
  Ag  Ag10902   1.0  0.96429  0.85714  0.67857  1.0000
  Ag  Ag10903   1.0  0.96429  0.89286  0.64286  1.0000
  Ag  Ag10904   1.0  0.92857  0.85714  0.71429  1.0000
  Ag  Ag10905   1.0  0.92857  0.89286  0.75000  1.0000
  Ag  Ag10906   1.0  0.96429  0.85714  0.75000  1.0000
  Ag  Ag10907   1.0  0.96429  0.89286  0.71429  1.0000
  Ag  Ag10908   1.0  0.92857  0.85714  0.78571  1.0000
  Ag  Ag10909   1.0  0.92857  0.89286  0.82143  1.0000
  Ag  Ag10910   1.0  0.96429  0.85714  0.82143  1.0000
  Ag  Ag10911   1.0  0.96429  0.89286  0.78571  1.0000
  Ag  Ag10912   1.0  0.92857  0.85714  0.85714  1.0000
  Ag  Ag10913   1.0  0.92857  0.89286  0.89286  1.0000
  Ag  Ag10914   1.0  0.96429  0.85714  0.89286  1.0000
  Ag  Ag10915   1.0  0.96429  0.89286  0.85714  1.0000
  Ag  Ag10916   1.0  0.92857  0.85714  0.92857  1.0000
  Ag  Ag10917   1.0  0.92857  0.89286  0.96429  1.0000
  Ag  Ag10918   1.0  0.96429  0.85714  0.96429  1.0000
  Ag  Ag10919   1.0  0.96429  0.89286  0.92857  1.0000
  Ag  Ag10920   1.0  0.92857  0.92857  0.00000  1.0000
  Ag  Ag10921   1.0  0.92857  0.96429  0.03571  1.0000
  Ag  Ag10922   1.0  0.96429  0.92857  0.03571  1.0000
  Ag  Ag10923   1.0  0.96429  0.96429  0.00000  1.0000
  Ag  Ag10924   1.0  0.92857  0.92857  0.07143  1.0000
  Ag  Ag10925   1.0  0.92857  0.96429  0.10714  1.0000
  Ag  Ag10926   1.0  0.96429  0.92857  0.10714  1.0000
  Ag  Ag10927   1.0  0.96429  0.96429  0.07143  1.0000
  Ag  Ag10928   1.0  0.92857  0.92857  0.14286  1.0000
  Ag  Ag10929   1.0  0.92857  0.96429  0.17857  1.0000
  Ag  Ag10930   1.0  0.96429  0.92857  0.17857  1.0000
  Ag  Ag10931   1.0  0.96429  0.96429  0.14286  1.0000
  Ag  Ag10932   1.0  0.92857  0.92857  0.21429  1.0000
  Ag  Ag10933   1.0  0.92857  0.96429  0.25000  1.0000
  Ag  Ag10934   1.0  0.96429  0.92857  0.25000  1.0000
  Ag  Ag10935   1.0  0.96429  0.96429  0.21429  1.0000
  Ag  Ag10936   1.0  0.92857  0.92857  0.28571  1.0000
  Ag  Ag10937   1.0  0.92857  0.96429  0.32143  1.0000
  Ag  Ag10938   1.0  0.96429  0.92857  0.32143  1.0000
  Ag  Ag10939   1.0  0.96429  0.96429  0.28571  1.0000
  Ag  Ag10940   1.0  0.92857  0.92857  0.35714  1.0000
  Ag  Ag10941   1.0  0.92857  0.96429  0.39286  1.0000
  Ag  Ag10942   1.0  0.96429  0.92857  0.39286  1.0000
  Ag  Ag10943   1.0  0.96429  0.96429  0.35714  1.0000
  Ag  Ag10944   1.0  0.92857  0.92857  0.42857  1.0000
  Ag  Ag10945   1.0  0.92857  0.96429  0.46429  1.0000
  Ag  Ag10946   1.0  0.96429  0.92857  0.46429  1.0000
  Ag  Ag10947   1.0  0.96429  0.96429  0.42857  1.0000
  Ag  Ag10948   1.0  0.92857  0.92857  0.50000  1.0000
  Ag  Ag10949   1.0  0.92857  0.96429  0.53571  1.0000
  Ag  Ag10950   1.0  0.96429  0.92857  0.53571  1.0000
  Ag  Ag10951   1.0  0.96429  0.96429  0.50000  1.0000
  Ag  Ag10952   1.0  0.92857  0.92857  0.57143  1.0000
  Ag  Ag10953   1.0  0.92857  0.96429  0.60714  1.0000
  Ag  Ag10954   1.0  0.96429  0.92857  0.60714  1.0000
  Ag  Ag10955   1.0  0.96429  0.96429  0.57143  1.0000
  Ag  Ag10956   1.0  0.92857  0.92857  0.64286  1.0000
  Ag  Ag10957   1.0  0.92857  0.96429  0.67857  1.0000
  Ag  Ag10958   1.0  0.96429  0.92857  0.67857  1.0000
  Ag  Ag10959   1.0  0.96429  0.96429  0.64286  1.0000
  Ag  Ag10960   1.0  0.92857  0.92857  0.71429  1.0000
  Ag  Ag10961   1.0  0.92857  0.96429  0.75000  1.0000
  Ag  Ag10962   1.0  0.96429  0.92857  0.75000  1.0000
  Ag  Ag10963   1.0  0.96429  0.96429  0.71429  1.0000
  Ag  Ag10964   1.0  0.92857  0.92857  0.78571  1.0000
  Ag  Ag10965   1.0  0.92857  0.96429  0.82143  1.0000
  Ag  Ag10966   1.0  0.96429  0.92857  0.82143  1.0000
  Ag  Ag10967   1.0  0.96429  0.96429  0.78571  1.0000
  Ag  Ag10968   1.0  0.92857  0.92857  0.85714  1.0000
  Ag  Ag10969   1.0  0.92857  0.96429  0.89286  1.0000
  Ag  Ag10970   1.0  0.96429  0.92857  0.89286  1.0000
  Ag  Ag10971   1.0  0.96429  0.96429  0.85714  1.0000
  Ag  Ag10972   1.0  0.92857  0.92857  0.92857  1.0000
  Ag  Ag10973   1.0  0.92857  0.96429  0.96429  1.0000
  Ag  Ag10974   1.0  0.96429  0.92857  0.96429  1.0000
  Ag  Ag10975   1.0  0.96429  0.96429  0.92857  1.0000
